BDH-1GEG
  PyMOL3.1          3D                             0

 44 48  0  0  0  0  0  0  0  0999 V2000
   24.5270  -18.2970   -1.5060 P   0  0  0  0  0  0  0  0  0  0  0  0
   21.8600  -17.0890   -1.7470 P   0  0  0  0  0  0  0  0  0  0  0  0
   28.8090  -15.3240   -4.2790 C   0  0  0  0  0  0  0  0  0  0  0  0
   19.7650  -12.8960   -0.4770 C   0  0  0  0  0  0  0  0  0  0  0  0
   31.8210  -11.1160   -4.6990 N   0  0  0  0  0  0  0  0  0  0  0  0
   18.8000  -13.6330    0.3180 N   0  0  0  0  0  0  0  0  0  0  0  0
   25.5100  -18.1970   -0.4010 O   0  0  0  0  0  0  0  0  0  0  0  0
   21.8220  -17.5170   -3.1550 O   0  0  0  0  0  0  0  0  0  0  0  0
   31.1760  -11.8960   -5.6320 C   0  0  0  0  0  0  0  0  0  0  0  0
   29.1620  -16.7480   -3.8880 C   0  0  0  0  0  0  0  0  0  0  0  0
   21.1540  -12.9840    0.0570 C   0  0  0  0  0  0  0  0  0  0  0  0
   18.8870  -15.0200    0.5420 C   0  0  0  0  0  0  0  0  0  0  0  0
   23.9270  -19.6380   -1.7390 O   0  0  0  0  0  0  0  0  0  0  0  0
   30.3040  -17.2910   -4.5730 O   0  0  0  0  0  0  0  0  0  0  0  0
   21.4020  -12.0270    1.1060 O   0  0  0  0  0  0  0  0  0  0  0  0
   21.0100  -17.8830   -0.8380 O   0  0  0  0  0  0  0  0  0  0  0  0
   27.8750  -17.5180   -4.1800 C   0  0  0  0  0  0  0  0  0  0  0  0
   21.9760  -12.6560   -1.1790 C   0  0  0  0  0  0  0  0  0  0  0  0
   17.8940  -15.7150    1.4050 C   0  0  0  0  0  0  0  0  0  0  0  0
   30.4140  -12.9600   -5.4750 N   0  0  0  0  0  0  0  0  0  0  0  0
   23.4170  -17.2310   -1.2450 O   0  0  0  0  0  0  0  0  0  0  0  0
   27.7900  -18.1350   -5.4790 O   0  0  0  0  0  0  0  0  0  0  0  0
   22.0600  -11.2400   -1.3940 O   0  0  0  0  0  0  0  0  0  0  0  0
   30.2980  -13.2630   -4.1530 C   0  0  0  0  0  0  0  0  0  0  0  0
   26.8060  -16.4340   -4.0840 C   0  0  0  0  0  0  0  0  0  0  0  0
   21.1650  -13.3120   -2.3040 C   0  0  0  0  0  0  0  0  0  0  0  0
   16.7190  -14.9240    1.9430 C   0  0  0  0  0  0  0  0  0  0  0  0
   27.4910  -15.1860   -3.8460 O   0  0  0  0  0  0  0  0  0  0  0  0
   19.8180  -13.4280   -1.7740 O   0  0  0  0  0  0  0  0  0  0  0  0
   30.8790  -12.5830   -3.0850 C   0  0  0  0  0  0  0  0  0  0  0  0
   25.9400  -16.5640   -2.8500 C   0  0  0  0  0  0  0  0  0  0  0  0
   21.5710  -14.7040   -2.7450 C   0  0  0  0  0  0  0  0  0  0  0  0
   16.7890  -13.4800    1.6110 C   0  0  0  0  0  0  0  0  0  0  0  0
   25.1740  -17.7850   -2.8830 O   0  0  0  0  0  0  0  0  0  0  0  0
   21.7320  -15.5150   -1.5760 O   0  0  0  0  0  0  0  0  0  0  0  0
   31.6760  -11.4610   -3.3790 C   0  0  0  0  0  0  0  0  0  0  0  0
   17.7180  -12.9070    0.8840 C   0  0  0  0  0  0  0  0  0  0  0  0
   32.3050  -10.7050   -2.5020 N   0  0  0  0  0  0  0  0  0  0  0  0
   18.0640  -17.1600    1.6320 C   0  0  0  0  0  0  0  0  0  0  0  0
   30.5480  -13.1700   -1.8830 N   0  0  0  0  0  0  0  0  0  0  0  0
   19.0560  -17.8810    1.0960 N   0  0  0  0  0  0  0  0  0  0  0  0
   17.2290  -17.7100    2.3690 O   0  0  0  0  0  0  0  0  0  0  0  0
   29.7780  -14.1930   -2.2310 C   0  0  0  0  0  0  0  0  0  0  0  0
   29.5880  -14.3080   -3.5790 N   0  0  0  0  0  0  0  0  0  0  0  0
  4  6  1  0  0  0  0
  1  7  2  0  0  0  0
  2  8  2  0  0  0  0
  5  9  1  0  0  0  0
  3 10  1  0  0  0  0
  4 11  1  0  0  0  0
  6 12  1  0  0  0  0
  1 13  1  0  0  0  0
 10 14  1  0  0  0  0
 11 15  1  0  0  0  0
  2 16  1  0  0  0  0
 10 17  1  0  0  0  0
 11 18  1  0  0  0  0
 12 19  2  0  0  0  0
  9 20  2  0  0  0  0
  1 21  1  0  0  0  0
  2 21  1  0  0  0  0
 17 22  1  0  0  0  0
 18 23  1  0  0  0  0
 20 24  1  0  0  0  0
 17 25  1  0  0  0  0
 18 26  1  0  0  0  0
 19 27  1  0  0  0  0
  3 28  1  0  0  0  0
 25 28  1  0  0  0  0
  4 29  1  0  0  0  0
 26 29  1  0  0  0  0
 24 30  2  0  0  0  0
 25 31  1  0  0  0  0
 26 32  1  0  0  0  0
 27 33  2  0  0  0  0
  1 34  1  0  0  0  0
 31 34  1  0  0  0  0
  2 35  1  0  0  0  0
 32 35  1  0  0  0  0
  5 36  2  0  0  0  0
 30 36  1  0  0  0  0
  6 37  2  0  0  0  0
 33 37  1  0  0  0  0
 36 38  1  0  0  0  0
 19 39  1  0  0  0  0
 30 40  1  0  0  0  0
 39 41  1  0  0  0  0
 39 42  2  0  0  0  0
 40 43  2  0  0  0  0
  3 44  1  0  0  0  0
 24 44  1  0  0  0  0
 43 44  1  0  0  0  0
M  END
