
     RDKit          3D

101108  0  0  0  0  0  0  0  0999 V2000
    9.6938   -2.3693    0.2020 C   0  0  0  0  0  0  0  0  0  0  0  0
   11.1498   -1.9953    0.4514 C   0  0  0  0  0  0  0  0  0  0  0  0
   11.3014   -0.4870    0.7085 C   0  0  0  0  0  0  0  0  0  0  0  0
   10.1242    0.0947    1.5125 C   0  0  0  0  0  0  0  0  0  0  0  0
    9.3922   -0.9696    2.3243 C   0  0  0  0  0  0  0  0  0  0  0  0
    8.8076   -2.0694    1.4240 C   0  0  0  0  0  0  0  0  0  0  0  0
    7.4586   -1.7256    1.0033 N   0  0  0  0  0  0  0  0  0  0  0  0
    6.5894   -2.6565    0.4674 C   0  0  0  0  0  0  0  0  0  0  0  0
    6.8461   -3.8519    0.3680 O   0  0  0  0  0  0  0  0  0  0  0  0
    5.2876   -2.1135   -0.0117 C   0  0  0  0  0  0  0  0  0  0  0  0
    5.0196   -0.8218    0.2713 N   0  0  0  0  0  0  0  0  0  0  0  0
    3.8137   -0.2799   -0.1326 N   0  0  0  0  0  0  0  0  0  0  0  0
    2.8893   -1.0065   -0.8076 C   0  0  0  0  0  0  0  0  0  0  0  0
    3.1969   -2.3297   -1.1288 C   0  0  0  0  0  0  0  0  0  0  0  0
    4.4033   -2.8998   -0.7192 C   0  0  0  0  0  0  0  0  0  0  0  0
    1.6759   -0.4300   -1.1947 N   0  0  0  0  0  0  0  0  0  0  0  0
    1.4495    0.9641   -0.8132 C   0  0  0  0  0  0  0  0  0  0  0  0
    0.6259    1.0476    0.4718 C   0  0  0  0  0  0  0  0  0  0  0  0
   -0.6389    0.1557    0.4436 C   0  0  0  0  0  0  0  0  0  0  0  0
   -0.7880   -0.5493   -0.9141 C   0  0  0  0  0  0  0  0  0  0  0  0
    0.4961   -1.2979   -1.2694 C   0  0  0  0  0  0  0  0  0  0  0  0
   -1.8851    0.9636    0.8689 C   0  0  0  0  0  0  0  0  0  0  0  0
   -3.0658    0.1102    1.0361 N   0  0  0  0  0  0  0  0  0  0  0  0
   -3.9153    0.0009   -0.1682 C   0  0  0  0  0  0  0  0  0  0  0  0
   -5.3813    0.4901   -0.0379 C   0  0  0  0  0  0  0  0  0  0  0  0
   -6.0423   -0.0775    1.1480 N   0  0  0  0  0  0  0  0  0  0  0  0
   -5.1819   -0.3118    2.3236 C   0  0  0  0  0  0  0  0  0  0  0  0
   -3.8598    0.4834    2.2202 C   0  0  0  0  0  0  0  0  0  0  0  0
   -7.3994   -0.3767    1.1791 C   0  0  0  0  0  0  0  0  0  0  0  0
   -7.9710   -1.2774    2.1342 C   0  0  0  0  0  0  0  0  0  0  0  0
   -9.3320   -1.5983    2.1739 C   0  0  0  0  0  0  0  0  0  0  0  0
  -10.1392   -0.9974    1.2393 C   0  0  0  0  0  0  0  0  0  0  0  0
   -9.6337   -0.1137    0.3116 C   0  0  0  0  0  0  0  0  0  0  0  0
   -8.2875    0.2122    0.2564 C   0  0  0  0  0  0  0  0  0  0  0  0
  -10.7528    0.3608   -0.4984 C   0  0  0  0  0  0  0  0  0  0  0  0
  -10.6508    1.2030   -1.3671 O   0  0  0  0  0  0  0  0  0  0  0  0
  -11.8674   -0.2946   -0.0560 N   0  0  0  0  0  0  0  0  0  0  0  0
  -11.5774   -1.1038    1.0112 C   0  0  0  0  0  0  0  0  0  0  0  0
  -12.3228   -1.8028    1.6685 O   0  0  0  0  0  0  0  0  0  0  0  0
  -13.2327   -0.0258   -0.4909 C   0  0  0  0  0  0  0  0  0  0  0  0
  -13.4696   -0.1173   -1.9995 C   0  0  0  0  0  0  0  0  0  0  0  0
  -13.4835    1.2260   -2.7118 C   0  0  0  0  0  0  0  0  0  0  0  0
  -14.3173    2.2563   -1.9910 C   0  0  0  0  0  0  0  0  0  0  0  0
  -14.7334    3.2684   -2.5487 O   0  0  0  0  0  0  0  0  0  0  0  0
  -14.5153    2.0697   -0.6512 N   0  0  0  0  0  0  0  0  0  0  0  0
  -13.6840    1.3044    0.1207 C   0  0  0  0  0  0  0  0  0  0  0  0
  -13.3585    1.6783    1.2466 O   0  0  0  0  0  0  0  0  0  0  0  0
   -7.1894   -1.8868    3.0405 F   0  0  0  0  0  0  0  0  0  0  0  0
   11.3429    0.1452   -0.5790 O   0  0  0  0  0  0  0  0  0  0  0  0
   12.1224    1.2486   -0.7624 C   0  0  0  0  0  0  0  0  0  0  0  0
   12.3083    1.6039   -2.1020 C   0  0  0  0  0  0  0  0  0  0  0  0
   13.0838    2.7144   -2.4463 C   0  0  0  0  0  0  0  0  0  0  0  0
   13.6789    3.4893   -1.4461 C   0  0  0  0  0  0  0  0  0  0  0  0
   13.4793    3.1409   -0.1026 C   0  0  0  0  0  0  0  0  0  0  0  0
   12.7006    2.0270    0.2383 C   0  0  0  0  0  0  0  0  0  0  0  0
   14.4913    4.6285   -1.7560 C   0  0  0  0  0  0  0  0  0  0  0  0
   15.1581    5.5539   -1.9771 N   0  0  0  0  0  0  0  0  0  0  0  0
   13.2693    3.0750   -4.1250 Cl  0  0  0  0  0  0  0  0  0  0  0  0
    9.3313   -1.8257   -0.6802 H   0  0  0  0  0  0  0  0  0  0  0  0
    9.6213   -3.4342   -0.0489 H   0  0  0  0  0  0  0  0  0  0  0  0
   11.5169   -2.5568    1.3186 H   0  0  0  0  0  0  0  0  0  0  0  0
   11.7549   -2.2962   -0.4121 H   0  0  0  0  0  0  0  0  0  0  0  0
   12.2508   -0.3574    1.2421 H   0  0  0  0  0  0  0  0  0  0  0  0
   10.5021    0.8693    2.1903 H   0  0  0  0  0  0  0  0  0  0  0  0
    9.4134    0.6022    0.8471 H   0  0  0  0  0  0  0  0  0  0  0  0
    8.6072   -0.5037    2.9306 H   0  0  0  0  0  0  0  0  0  0  0  0
   10.1018   -1.4197    3.0299 H   0  0  0  0  0  0  0  0  0  0  0  0
    8.7200   -2.9843    2.0250 H   0  0  0  0  0  0  0  0  0  0  0  0
    7.1812   -0.7483    0.9313 H   0  0  0  0  0  0  0  0  0  0  0  0
    2.5105   -2.9376   -1.7088 H   0  0  0  0  0  0  0  0  0  0  0  0
    4.6428   -3.9307   -0.9571 H   0  0  0  0  0  0  0  0  0  0  0  0
    2.3747    1.5424   -0.7098 H   0  0  0  0  0  0  0  0  0  0  0  0
    0.9065    1.4620   -1.6263 H   0  0  0  0  0  0  0  0  0  0  0  0
    1.2473    0.7353    1.3203 H   0  0  0  0  0  0  0  0  0  0  0  0
    0.3680    2.0966    0.6556 H   0  0  0  0  0  0  0  0  0  0  0  0
   -0.4907   -0.6286    1.2024 H   0  0  0  0  0  0  0  0  0  0  0  0
   -1.0362    0.1787   -1.6967 H   0  0  0  0  0  0  0  0  0  0  0  0
   -1.6045   -1.2785   -0.8870 H   0  0  0  0  0  0  0  0  0  0  0  0
    0.5812   -2.1431   -0.5752 H   0  0  0  0  0  0  0  0  0  0  0  0
    0.4065   -1.7066   -2.2824 H   0  0  0  0  0  0  0  0  0  0  0  0
   -2.0800    1.7896    0.1716 H   0  0  0  0  0  0  0  0  0  0  0  0
   -1.6363    1.4363    1.8300 H   0  0  0  0  0  0  0  0  0  0  0  0
   -3.9479   -1.0653   -0.4268 H   0  0  0  0  0  0  0  0  0  0  0  0
   -3.4656    0.5058   -1.0317 H   0  0  0  0  0  0  0  0  0  0  0  0
   -5.8953    0.1943   -0.9591 H   0  0  0  0  0  0  0  0  0  0  0  0
   -5.4032    1.5842    0.0246 H   0  0  0  0  0  0  0  0  0  0  0  0
   -5.6910    0.0097    3.2411 H   0  0  0  0  0  0  0  0  0  0  0  0
   -4.9513   -1.3812    2.4070 H   0  0  0  0  0  0  0  0  0  0  0  0
   -3.2695    0.2918    3.1242 H   0  0  0  0  0  0  0  0  0  0  0  0
   -4.0886    1.5574    2.1985 H   0  0  0  0  0  0  0  0  0  0  0  0
   -9.7231   -2.2884    2.9124 H   0  0  0  0  0  0  0  0  0  0  0  0
   -7.9559    0.9371   -0.4795 H   0  0  0  0  0  0  0  0  0  0  0  0
  -13.8698   -0.7878   -0.0211 H   0  0  0  0  0  0  0  0  0  0  0  0
  -14.4579   -0.5722   -2.1500 H   0  0  0  0  0  0  0  0  0  0  0  0
  -12.7501   -0.7920   -2.4766 H   0  0  0  0  0  0  0  0  0  0  0  0
  -13.9046    1.0923   -3.7151 H   0  0  0  0  0  0  0  0  0  0  0  0
  -12.4768    1.6315   -2.8361 H   0  0  0  0  0  0  0  0  0  0  0  0
  -14.8584    2.9045   -0.1936 H   0  0  0  0  0  0  0  0  0  0  0  0
   11.8436    0.9978   -2.8785 H   0  0  0  0  0  0  0  0  0  0  0  0
   13.9315    3.7356    0.6900 H   0  0  0  0  0  0  0  0  0  0  0  0
   12.5634    1.8052    1.2913 H   0  0  0  0  0  0  0  0  0  0  0  0
  1  2  1  0
  2  3  1  0
  3  4  1  0
  4  5  1  0
  5  6  1  0
  6  7  1  0
  7  8  1  0
  8  9  2  0
  8 10  1  0
 10 11  2  0
 11 12  1  0
 12 13  2  0
 13 14  1  0
 14 15  2  0
 13 16  1  0
 16 17  1  0
 17 18  1  0
 18 19  1  0
 19 20  1  0
 20 21  1  0
 19 22  1  0
 22 23  1  0
 23 24  1  0
 24 25  1  0
 25 26  1  0
 26 27  1  0
 27 28  1  0
 26 29  1  0
 29 30  2  0
 30 31  1  0
 31 32  2  0
 32 33  1  0
 33 34  2  0
 33 35  1  0
 35 36  2  0
 35 37  1  0
 37 38  1  0
 38 39  2  0
 37 40  1  0
 40 41  1  0
 41 42  1  0
 42 43  1  0
 43 44  2  0
 43 45  1  0
 45 46  1  0
 46 47  2  0
 30 48  1  0
  3 49  1  0
 49 50  1  0
 50 51  2  0
 51 52  1  0
 52 53  2  0
 53 54  1  0
 54 55  2  0
 53 56  1  0
 56 57  3  0
 52 58  1  0
  6  1  1  0
 15 10  1  0
 21 16  1  0
 28 23  1  0
 34 29  1  0
 38 32  1  0
 46 40  1  0
 55 50  1  0
  1 59  1  0
  1 60  1  0
  2 61  1  0
  2 62  1  0
  3 63  1  0
  4 64  1  0
  4 65  1  0
  5 66  1  0
  5 67  1  0
  6 68  1  0
  7 69  1  0
 14 70  1  0
 15 71  1  0
 17 72  1  0
 17 73  1  0
 18 74  1  0
 18 75  1  0
 19 76  1  0
 20 77  1  0
 20 78  1  0
 21 79  1  0
 21 80  1  0
 22 81  1  0
 22 82  1  0
 24 83  1  0
 24 84  1  0
 25 85  1  0
 25 86  1  0
 27 87  1  0
 27 88  1  0
 28 89  1  0
 28 90  1  0
 31 91  1  0
 34 92  1  0
 40 93  1  0
 41 94  1  0
 41 95  1  0
 42 96  1  0
 42 97  1  0
 45 98  1  0
 51 99  1  0
 54100  1  0
 55101  1  0
M  END
