
 OpenBabel04292615093D

 13 12  0  0  0  0  0  0  0  0999 V2000
    7.4586   -1.7256    1.0033 N   0  0  0  0  0  0  0  0  0  0  0  0
    6.5894   -2.6565    0.4674 C   0  0  0  0  0  0  0  0  0  0  0  0
    6.8461   -3.8519    0.3680 O   0  0  0  0  0  0  0  0  0  0  0  0
   -7.3994   -0.3767    1.1791 C   0  0  0  0  0  0  0  0  0  0  0  0
   -7.9710   -1.2774    2.1342 C   0  0  0  0  0  0  0  0  0  0  0  0
   -9.3320   -1.5983    2.1739 C   0  0  0  0  0  0  0  0  0  0  0  0
  -10.1392   -0.9974    1.2393 C   0  0  0  0  0  0  0  0  0  0  0  0
   -9.6337   -0.1137    0.3116 C   0  0  0  0  0  0  0  0  0  0  0  0
   -8.2875    0.2122    0.2564 C   0  0  0  0  0  0  0  0  0  0  0  0
   -7.1894   -1.8868    3.0405 F   0  0  0  0  0  0  0  0  0  0  0  0
    7.1812   -0.7483    0.9313 H   0  0  0  0  0  0  0  0  0  0  0  0
   -9.7231   -2.2884    2.9124 H   0  0  0  0  0  0  0  0  0  0  0  0
   -7.9559    0.9371   -0.4795 H   0  0  0  0  0  0  0  0  0  0  0  0
  1  2  1  0  0  0  0
  1 11  1  0  0  0  0
  2  3  2  0  0  0  0
  4  5  2  0  0  0  0
  5  6  1  0  0  0  0
  5 10  1  0  0  0  0
  6  7  2  0  0  0  0
  6 12  1  0  0  0  0
  7  8  1  0  0  0  0
  8  9  2  0  0  0  0
  9  4  1  0  0  0  0
  9 13  1  0  0  0  0
M  END
