
 OpenBabel04292615113D

 53 56  0  0  0  0  0  0  0  0999 V2000
    7.4586   -1.7256    1.0033 N   0  0  0  0  0  0  0  0  0  0  0  0
    6.5894   -2.6565    0.4674 C   0  0  0  0  0  0  0  0  0  0  0  0
    6.8461   -3.8519    0.3680 O   0  0  0  0  0  0  0  0  0  0  0  0
    5.2876   -2.1135   -0.0117 C   0  0  0  0  0  0  0  0  0  0  0  0
    5.0196   -0.8218    0.2713 N   0  0  0  0  0  0  0  0  0  0  0  0
    3.8137   -0.2799   -0.1326 N   0  0  0  0  0  0  0  0  0  0  0  0
    2.8893   -1.0065   -0.8076 C   0  0  0  0  0  0  0  0  0  0  0  0
    3.1969   -2.3297   -1.1288 C   0  0  0  0  0  0  0  0  0  0  0  0
    4.4033   -2.8998   -0.7192 C   0  0  0  0  0  0  0  0  0  0  0  0
    1.6759   -0.4300   -1.1947 N   0  0  0  0  0  0  0  0  0  0  0  0
    1.4495    0.9641   -0.8132 C   0  0  0  0  0  0  0  0  0  0  0  0
    0.6259    1.0476    0.4718 C   0  0  0  0  0  0  0  0  0  0  0  0
   -0.6389    0.1557    0.4436 C   0  0  0  0  0  0  0  0  0  0  0  0
   -0.7880   -0.5493   -0.9141 C   0  0  0  0  0  0  0  0  0  0  0  0
    0.4961   -1.2979   -1.2694 C   0  0  0  0  0  0  0  0  0  0  0  0
   -1.8851    0.9636    0.8689 C   0  0  0  0  0  0  0  0  0  0  0  0
   -3.0658    0.1102    1.0361 N   0  0  0  0  0  0  0  0  0  0  0  0
   -3.9153    0.0009   -0.1682 C   0  0  0  0  0  0  0  0  0  0  0  0
   -5.3813    0.4901   -0.0379 C   0  0  0  0  0  0  0  0  0  0  0  0
   -6.0423   -0.0775    1.1480 N   0  0  0  0  0  0  0  0  0  0  0  0
   -5.1819   -0.3118    2.3236 C   0  0  0  0  0  0  0  0  0  0  0  0
   -3.8598    0.4834    2.2202 C   0  0  0  0  0  0  0  0  0  0  0  0
   -7.3994   -0.3767    1.1791 C   0  0  0  0  0  0  0  0  0  0  0  0
   -7.9710   -1.2774    2.1342 C   0  0  0  0  0  0  0  0  0  0  0  0
   -9.3320   -1.5983    2.1739 C   0  0  0  0  0  0  0  0  0  0  0  0
  -10.1392   -0.9974    1.2393 C   0  0  0  0  0  0  0  0  0  0  0  0
   -9.6337   -0.1137    0.3116 C   0  0  0  0  0  0  0  0  0  0  0  0
   -8.2875    0.2122    0.2564 C   0  0  0  0  0  0  0  0  0  0  0  0
   -7.1894   -1.8868    3.0405 F   0  0  0  0  0  0  0  0  0  0  0  0
    7.1812   -0.7483    0.9313 H   0  0  0  0  0  0  0  0  0  0  0  0
    2.5105   -2.9376   -1.7088 H   0  0  0  0  0  0  0  0  0  0  0  0
    4.6428   -3.9307   -0.9571 H   0  0  0  0  0  0  0  0  0  0  0  0
    2.3747    1.5424   -0.7098 H   0  0  0  0  0  0  0  0  0  0  0  0
    0.9065    1.4620   -1.6263 H   0  0  0  0  0  0  0  0  0  0  0  0
    1.2473    0.7353    1.3203 H   0  0  0  0  0  0  0  0  0  0  0  0
    0.3680    2.0966    0.6556 H   0  0  0  0  0  0  0  0  0  0  0  0
   -0.4907   -0.6286    1.2024 H   0  0  0  0  0  0  0  0  0  0  0  0
   -1.0362    0.1787   -1.6967 H   0  0  0  0  0  0  0  0  0  0  0  0
   -1.6045   -1.2785   -0.8870 H   0  0  0  0  0  0  0  0  0  0  0  0
    0.5812   -2.1431   -0.5752 H   0  0  0  0  0  0  0  0  0  0  0  0
    0.4065   -1.7066   -2.2824 H   0  0  0  0  0  0  0  0  0  0  0  0
   -2.0800    1.7896    0.1716 H   0  0  0  0  0  0  0  0  0  0  0  0
   -1.6363    1.4363    1.8300 H   0  0  0  0  0  0  0  0  0  0  0  0
   -3.9479   -1.0653   -0.4268 H   0  0  0  0  0  0  0  0  0  0  0  0
   -3.4656    0.5058   -1.0317 H   0  0  0  0  0  0  0  0  0  0  0  0
   -5.8953    0.1943   -0.9591 H   0  0  0  0  0  0  0  0  0  0  0  0
   -5.4032    1.5842    0.0246 H   0  0  0  0  0  0  0  0  0  0  0  0
   -5.6910    0.0097    3.2411 H   0  0  0  0  0  0  0  0  0  0  0  0
   -4.9513   -1.3812    2.4070 H   0  0  0  0  0  0  0  0  0  0  0  0
   -3.2695    0.2918    3.1242 H   0  0  0  0  0  0  0  0  0  0  0  0
   -4.0886    1.5574    2.1985 H   0  0  0  0  0  0  0  0  0  0  0  0
   -9.7231   -2.2884    2.9124 H   0  0  0  0  0  0  0  0  0  0  0  0
   -7.9559    0.9371   -0.4795 H   0  0  0  0  0  0  0  0  0  0  0  0
  1  2  1  0  0  0  0
  1 30  1  0  0  0  0
  2  3  2  0  0  0  0
  2  4  1  0  0  0  0
  4  5  2  0  0  0  0
  5  6  1  0  0  0  0
  6  7  2  0  0  0  0
  7  8  1  0  0  0  0
  7 10  1  0  0  0  0
  8  9  2  0  0  0  0
  8 31  1  0  0  0  0
  9  4  1  0  0  0  0
  9 32  1  0  0  0  0
 10 11  1  0  0  0  0
 11 12  1  0  0  0  0
 11 33  1  0  0  0  0
 11 34  1  0  0  0  0
 12 13  1  0  0  0  0
 12 35  1  0  0  0  0
 12 36  1  0  0  0  0
 13 14  1  0  0  0  0
 13 16  1  0  0  0  0
 13 37  1  0  0  0  0
 14 15  1  0  0  0  0
 14 38  1  0  0  0  0
 14 39  1  0  0  0  0
 15 10  1  0  0  0  0
 15 40  1  0  0  0  0
 15 41  1  0  0  0  0
 16 17  1  0  0  0  0
 16 42  1  0  0  0  0
 16 43  1  0  0  0  0
 17 18  1  0  0  0  0
 18 19  1  0  0  0  0
 18 44  1  0  0  0  0
 18 45  1  0  0  0  0
 19 20  1  0  0  0  0
 19 46  1  0  0  0  0
 19 47  1  0  0  0  0
 20 21  1  0  0  0  0
 20 23  1  0  0  0  0
 21 22  1  0  0  0  0
 21 48  1  0  0  0  0
 21 49  1  0  0  0  0
 22 17  1  0  0  0  0
 22 50  1  0  0  0  0
 22 51  1  0  0  0  0
 23 24  2  0  0  0  0
 24 25  1  0  0  0  0
 24 29  1  0  0  0  0
 25 26  2  0  0  0  0
 25 52  1  0  0  0  0
 26 27  1  0  0  0  0
 27 28  2  0  0  0  0
 28 23  1  0  0  0  0
 28 53  1  0  0  0  0
M  END
