n-alkane C15H32
     RDKit          3D

 47 46  0  0  0  0  0  0  0  0999 V2000
   -4.8222    2.6174    2.9981 C   0  0  0  0  0  0  0  0  0  0  0  0
   -3.6518    2.0614    2.2009 C   0  0  0  0  0  0  0  0  0  0  0  0
   -3.8344    2.2993    0.7035 C   0  0  0  0  0  0  0  0  0  0  0  0
   -2.6206    1.9069   -0.1474 C   0  0  0  0  0  0  0  0  0  0  0  0
   -2.2901    0.4096   -0.1331 C   0  0  0  0  0  0  0  0  0  0  0  0
   -1.1977   -0.0013    0.8622 C   0  0  0  0  0  0  0  0  0  0  0  0
    0.2022    0.4601    0.4373 C   0  0  0  0  0  0  0  0  0  0  0  0
    1.2997    0.0205    1.4142 C   0  0  0  0  0  0  0  0  0  0  0  0
    1.6014   -1.4847    1.3950 C   0  0  0  0  0  0  0  0  0  0  0  0
    2.9351   -1.8494    0.7292 C   0  0  0  0  0  0  0  0  0  0  0  0
    3.0505   -1.5389   -0.7664 C   0  0  0  0  0  0  0  0  0  0  0  0
    2.6241   -2.6754   -1.7037 C   0  0  0  0  0  0  0  0  0  0  0  0
    1.1417   -3.0390   -1.6293 C   0  0  0  0  0  0  0  0  0  0  0  0
    0.6874   -3.9542   -2.7702 C   0  0  0  0  0  0  0  0  0  0  0  0
    1.3538   -5.3212   -2.7524 C   0  0  0  0  0  0  0  0  0  0  0  0
   -5.7625    2.1459    2.6948 H   0  0  0  0  0  0  0  0  0  0  0  0
   -4.6764    2.4290    4.0664 H   0  0  0  0  0  0  0  0  0  0  0  0
   -4.9172    3.6984    2.8542 H   0  0  0  0  0  0  0  0  0  0  0  0
   -2.7255    2.5348    2.5456 H   0  0  0  0  0  0  0  0  0  0  0  0
   -3.5727    0.9885    2.4050 H   0  0  0  0  0  0  0  0  0  0  0  0
   -4.7189    1.7546    0.3506 H   0  0  0  0  0  0  0  0  0  0  0  0
   -4.0366    3.3642    0.5315 H   0  0  0  0  0  0  0  0  0  0  0  0
   -1.7569    2.5133    0.1428 H   0  0  0  0  0  0  0  0  0  0  0  0
   -2.8549    2.1865   -1.1828 H   0  0  0  0  0  0  0  0  0  0  0  0
   -3.1992   -0.1683    0.0728 H   0  0  0  0  0  0  0  0  0  0  0  0
   -1.9644    0.1135   -1.1386 H   0  0  0  0  0  0  0  0  0  0  0  0
   -1.2137   -1.0943    0.9365 H   0  0  0  0  0  0  0  0  0  0  0  0
   -1.4225    0.3822    1.8620 H   0  0  0  0  0  0  0  0  0  0  0  0
    0.4232    0.0949   -0.5706 H   0  0  0  0  0  0  0  0  0  0  0  0
    0.2234    1.5543    0.3855 H   0  0  0  0  0  0  0  0  0  0  0  0
    0.9918    0.3056    2.4284 H   0  0  0  0  0  0  0  0  0  0  0  0
    2.2124    0.5911    1.2044 H   0  0  0  0  0  0  0  0  0  0  0  0
    0.7819   -2.0527    0.9515 H   0  0  0  0  0  0  0  0  0  0  0  0
    1.6669   -1.8221    2.4379 H   0  0  0  0  0  0  0  0  0  0  0  0
    3.7285   -1.3001    1.2530 H   0  0  0  0  0  0  0  0  0  0  0  0
    3.1422   -2.9125    0.9024 H   0  0  0  0  0  0  0  0  0  0  0  0
    2.5234   -0.6169   -1.0270 H   0  0  0  0  0  0  0  0  0  0  0  0
    4.1104   -1.3431   -0.9774 H   0  0  0  0  0  0  0  0  0  0  0  0
    2.8664   -2.3703   -2.7296 H   0  0  0  0  0  0  0  0  0  0  0  0
    3.2345   -3.5606   -1.4893 H   0  0  0  0  0  0  0  0  0  0  0  0
    0.9274   -3.5341   -0.6763 H   0  0  0  0  0  0  0  0  0  0  0  0
    0.5391   -2.1242   -1.6660 H   0  0  0  0  0  0  0  0  0  0  0  0
   -0.3975   -4.0935   -2.6925 H   0  0  0  0  0  0  0  0  0  0  0  0
    0.8758   -3.4693   -3.7351 H   0  0  0  0  0  0  0  0  0  0  0  0
    2.4289   -5.2455   -2.9404 H   0  0  0  0  0  0  0  0  0  0  0  0
    0.9250   -5.9582   -3.5326 H   0  0  0  0  0  0  0  0  0  0  0  0
    1.2045   -5.8188   -1.7889 H   0  0  0  0  0  0  0  0  0  0  0  0
  1  2  1  0
  2  3  1  0
  3  4  1  0
  4  5  1  0
  5  6  1  0
  6  7  1  0
  7  8  1  0
  8  9  1  0
  9 10  1  0
 10 11  1  0
 11 12  1  0
 12 13  1  0
 13 14  1  0
 14 15  1  0
  1 16  1  0
  1 17  1  0
  1 18  1  0
  2 19  1  0
  2 20  1  0
  3 21  1  0
  3 22  1  0
  4 23  1  0
  4 24  1  0
  5 25  1  0
  5 26  1  0
  6 27  1  0
  6 28  1  0
  7 29  1  0
  7 30  1  0
  8 31  1  0
  8 32  1  0
  9 33  1  0
  9 34  1  0
 10 35  1  0
 10 36  1  0
 11 37  1  0
 11 38  1  0
 12 39  1  0
 12 40  1  0
 13 41  1  0
 13 42  1  0
 14 43  1  0
 14 44  1  0
 15 45  1  0
 15 46  1  0
 15 47  1  0
M  END
$$$$
n-alkane C16H34
     RDKit          3D

 50 49  0  0  0  0  0  0  0  0999 V2000
   -3.3207   -2.6326   -1.0012 C   0  0  0  0  0  0  0  0  0  0  0  0
   -2.3424   -2.0622    0.0139 C   0  0  0  0  0  0  0  0  0  0  0  0
   -2.9278   -2.0782    1.4278 C   0  0  0  0  0  0  0  0  0  0  0  0
   -1.9268   -1.6359    2.5008 C   0  0  0  0  0  0  0  0  0  0  0  0
   -1.5280   -0.1635    2.3798 C   0  0  0  0  0  0  0  0  0  0  0  0
   -0.5821    0.3096    3.4883 C   0  0  0  0  0  0  0  0  0  0  0  0
    0.7525   -0.4378    3.5920 C   0  0  0  0  0  0  0  0  0  0  0  0
    1.5612   -0.5440    2.2948 C   0  0  0  0  0  0  0  0  0  0  0  0
    1.9526    0.8127    1.7050 C   0  0  0  0  0  0  0  0  0  0  0  0
    2.8709    0.6992    0.4818 C   0  0  0  0  0  0  0  0  0  0  0  0
    2.3193   -0.1115   -0.6974 C   0  0  0  0  0  0  0  0  0  0  0  0
    1.0391    0.4755   -1.2969 C   0  0  0  0  0  0  0  0  0  0  0  0
    0.4295   -0.3976   -2.3992 C   0  0  0  0  0  0  0  0  0  0  0  0
    1.3192   -0.5271   -3.6374 C   0  0  0  0  0  0  0  0  0  0  0  0
    0.6166   -1.2121   -4.8127 C   0  0  0  0  0  0  0  0  0  0  0  0
    0.2416   -2.6599   -4.5352 C   0  0  0  0  0  0  0  0  0  0  0  0
   -3.5685   -3.6727   -0.7664 H   0  0  0  0  0  0  0  0  0  0  0  0
   -2.8833   -2.6060   -2.0043 H   0  0  0  0  0  0  0  0  0  0  0  0
   -4.2491   -2.0530   -1.0194 H   0  0  0  0  0  0  0  0  0  0  0  0
   -1.4156   -2.6467   -0.0133 H   0  0  0  0  0  0  0  0  0  0  0  0
   -2.0913   -1.0387   -0.2832 H   0  0  0  0  0  0  0  0  0  0  0  0
   -3.2569   -3.0970    1.6675 H   0  0  0  0  0  0  0  0  0  0  0  0
   -3.8193   -1.4406    1.4682 H   0  0  0  0  0  0  0  0  0  0  0  0
   -2.3789   -1.8021    3.4863 H   0  0  0  0  0  0  0  0  0  0  0  0
   -1.0421   -2.2797    2.4460 H   0  0  0  0  0  0  0  0  0  0  0  0
   -1.0667    0.0276    1.4070 H   0  0  0  0  0  0  0  0  0  0  0  0
   -2.4336    0.4550    2.4161 H   0  0  0  0  0  0  0  0  0  0  0  0
   -1.0972    0.2299    4.4539 H   0  0  0  0  0  0  0  0  0  0  0  0
   -0.3844    1.3783    3.3414 H   0  0  0  0  0  0  0  0  0  0  0  0
    1.3663    0.0571    4.3552 H   0  0  0  0  0  0  0  0  0  0  0  0
    0.5677   -1.4513    3.9682 H   0  0  0  0  0  0  0  0  0  0  0  0
    0.9949   -1.1283    1.5625 H   0  0  0  0  0  0  0  0  0  0  0  0
    2.4728   -1.1163    2.5074 H   0  0  0  0  0  0  0  0  0  0  0  0
    2.4768    1.3974    2.4714 H   0  0  0  0  0  0  0  0  0  0  0  0
    1.0598    1.3879    1.4398 H   0  0  0  0  0  0  0  0  0  0  0  0
    3.8194    0.2457    0.7964 H   0  0  0  0  0  0  0  0  0  0  0  0
    3.1143    1.7112    0.1351 H   0  0  0  0  0  0  0  0  0  0  0  0
    3.0980   -0.1429   -1.4686 H   0  0  0  0  0  0  0  0  0  0  0  0
    2.1489   -1.1500   -0.3922 H   0  0  0  0  0  0  0  0  0  0  0  0
    0.2808    0.5897   -0.5159 H   0  0  0  0  0  0  0  0  0  0  0  0
    1.2420    1.4792   -1.6893 H   0  0  0  0  0  0  0  0  0  0  0  0
   -0.5315    0.0436   -2.6914 H   0  0  0  0  0  0  0  0  0  0  0  0
    0.2106   -1.3895   -1.9877 H   0  0  0  0  0  0  0  0  0  0  0  0
    2.2298   -1.0849   -3.3912 H   0  0  0  0  0  0  0  0  0  0  0  0
    1.6347    0.4723   -3.9612 H   0  0  0  0  0  0  0  0  0  0  0  0
   -0.2828   -0.6496   -5.0888 H   0  0  0  0  0  0  0  0  0  0  0  0
    1.2858   -1.1849   -5.6810 H   0  0  0  0  0  0  0  0  0  0  0  0
   -0.5198   -2.7342   -3.7532 H   0  0  0  0  0  0  0  0  0  0  0  0
   -0.1672   -3.1217   -5.4397 H   0  0  0  0  0  0  0  0  0  0  0  0
    1.1162   -3.2399   -4.2243 H   0  0  0  0  0  0  0  0  0  0  0  0
  1  2  1  0
  2  3  1  0
  3  4  1  0
  4  5  1  0
  5  6  1  0
  6  7  1  0
  7  8  1  0
  8  9  1  0
  9 10  1  0
 10 11  1  0
 11 12  1  0
 12 13  1  0
 13 14  1  0
 14 15  1  0
 15 16  1  0
  1 17  1  0
  1 18  1  0
  1 19  1  0
  2 20  1  0
  2 21  1  0
  3 22  1  0
  3 23  1  0
  4 24  1  0
  4 25  1  0
  5 26  1  0
  5 27  1  0
  6 28  1  0
  6 29  1  0
  7 30  1  0
  7 31  1  0
  8 32  1  0
  8 33  1  0
  9 34  1  0
  9 35  1  0
 10 36  1  0
 10 37  1  0
 11 38  1  0
 11 39  1  0
 12 40  1  0
 12 41  1  0
 13 42  1  0
 13 43  1  0
 14 44  1  0
 14 45  1  0
 15 46  1  0
 15 47  1  0
 16 48  1  0
 16 49  1  0
 16 50  1  0
M  END
$$$$
n-alkane C17H36
     RDKit          3D

 53 52  0  0  0  0  0  0  0  0999 V2000
   -2.2345    4.2035    3.6421 C   0  0  0  0  0  0  0  0  0  0  0  0
   -1.6527    3.7847    2.3008 C   0  0  0  0  0  0  0  0  0  0  0  0
   -2.0559    2.3716    1.8742 C   0  0  0  0  0  0  0  0  0  0  0  0
   -1.4976    1.2790    2.7900 C   0  0  0  0  0  0  0  0  0  0  0  0
   -1.8362   -0.1145    2.2544 C   0  0  0  0  0  0  0  0  0  0  0  0
   -1.3918   -1.2483    3.1834 C   0  0  0  0  0  0  0  0  0  0  0  0
    0.1116   -1.3236    3.4703 C   0  0  0  0  0  0  0  0  0  0  0  0
    1.0182   -1.4145    2.2384 C   0  0  0  0  0  0  0  0  0  0  0  0
    0.7429   -2.6485    1.3757 C   0  0  0  0  0  0  0  0  0  0  0  0
    1.7627   -2.8386    0.2483 C   0  0  0  0  0  0  0  0  0  0  0  0
    1.7206   -1.7240   -0.8005 C   0  0  0  0  0  0  0  0  0  0  0  0
    2.6615   -2.0306   -1.9685 C   0  0  0  0  0  0  0  0  0  0  0  0
    2.7116   -0.9159   -3.0142 C   0  0  0  0  0  0  0  0  0  0  0  0
    1.4010   -0.6043   -3.7460 C   0  0  0  0  0  0  0  0  0  0  0  0
    0.8768   -1.7375   -4.6355 C   0  0  0  0  0  0  0  0  0  0  0  0
   -0.1776   -2.6101   -3.9520 C   0  0  0  0  0  0  0  0  0  0  0  0
   -0.7095   -3.6778   -4.8963 C   0  0  0  0  0  0  0  0  0  0  0  0
   -3.3241    4.1004    3.6475 H   0  0  0  0  0  0  0  0  0  0  0  0
   -1.8253    3.6053    4.4614 H   0  0  0  0  0  0  0  0  0  0  0  0
   -1.9925    5.2517    3.8452 H   0  0  0  0  0  0  0  0  0  0  0  0
   -1.9990    4.4900    1.5358 H   0  0  0  0  0  0  0  0  0  0  0  0
   -0.5601    3.8668    2.3355 H   0  0  0  0  0  0  0  0  0  0  0  0
   -3.1495    2.2982    1.8338 H   0  0  0  0  0  0  0  0  0  0  0  0
   -1.6900    2.2049    0.8534 H   0  0  0  0  0  0  0  0  0  0  0  0
   -1.9126    1.3860    3.7983 H   0  0  0  0  0  0  0  0  0  0  0  0
   -0.4113    1.3980    2.8681 H   0  0  0  0  0  0  0  0  0  0  0  0
   -1.3960   -0.2484    1.2596 H   0  0  0  0  0  0  0  0  0  0  0  0
   -2.9228   -0.1916    2.1219 H   0  0  0  0  0  0  0  0  0  0  0  0
   -1.9190   -1.1483    4.1407 H   0  0  0  0  0  0  0  0  0  0  0  0
   -1.7272   -2.2007    2.7559 H   0  0  0  0  0  0  0  0  0  0  0  0
    0.2958   -2.1956    4.1107 H   0  0  0  0  0  0  0  0  0  0  0  0
    0.4126   -0.4504    4.0613 H   0  0  0  0  0  0  0  0  0  0  0  0
    2.0590   -1.4445    2.5840 H   0  0  0  0  0  0  0  0  0  0  0  0
    0.9171   -0.5019    1.6420 H   0  0  0  0  0  0  0  0  0  0  0  0
    0.7643   -3.5420    2.0116 H   0  0  0  0  0  0  0  0  0  0  0  0
   -0.2618   -2.5917    0.9419 H   0  0  0  0  0  0  0  0  0  0  0  0
    2.7716   -2.9117    0.6722 H   0  0  0  0  0  0  0  0  0  0  0  0
    1.5550   -3.7986   -0.2406 H   0  0  0  0  0  0  0  0  0  0  0  0
    0.6929   -1.6087   -1.1604 H   0  0  0  0  0  0  0  0  0  0  0  0
    2.0148   -0.7710   -0.3470 H   0  0  0  0  0  0  0  0  0  0  0  0
    3.6766   -2.1700   -1.5748 H   0  0  0  0  0  0  0  0  0  0  0  0
    2.3883   -2.9796   -2.4418 H   0  0  0  0  0  0  0  0  0  0  0  0
    3.0593    0.0044   -2.5278 H   0  0  0  0  0  0  0  0  0  0  0  0
    3.4773   -1.1729   -3.7571 H   0  0  0  0  0  0  0  0  0  0  0  0
    0.6309   -0.2672   -3.0437 H   0  0  0  0  0  0  0  0  0  0  0  0
    1.6059    0.2555   -4.3979 H   0  0  0  0  0  0  0  0  0  0  0  0
    1.7059   -2.3548   -5.0010 H   0  0  0  0  0  0  0  0  0  0  0  0
    0.4137   -1.2838   -5.5214 H   0  0  0  0  0  0  0  0  0  0  0  0
   -1.0125   -1.9859   -3.6128 H   0  0  0  0  0  0  0  0  0  0  0  0
    0.2368   -3.1016   -3.0680 H   0  0  0  0  0  0  0  0  0  0  0  0
   -1.4642   -4.2885   -4.3908 H   0  0  0  0  0  0  0  0  0  0  0  0
    0.0949   -4.3403   -5.2315 H   0  0  0  0  0  0  0  0  0  0  0  0
   -1.1740   -3.2261   -5.7786 H   0  0  0  0  0  0  0  0  0  0  0  0
  1  2  1  0
  2  3  1  0
  3  4  1  0
  4  5  1  0
  5  6  1  0
  6  7  1  0
  7  8  1  0
  8  9  1  0
  9 10  1  0
 10 11  1  0
 11 12  1  0
 12 13  1  0
 13 14  1  0
 14 15  1  0
 15 16  1  0
 16 17  1  0
  1 18  1  0
  1 19  1  0
  1 20  1  0
  2 21  1  0
  2 22  1  0
  3 23  1  0
  3 24  1  0
  4 25  1  0
  4 26  1  0
  5 27  1  0
  5 28  1  0
  6 29  1  0
  6 30  1  0
  7 31  1  0
  7 32  1  0
  8 33  1  0
  8 34  1  0
  9 35  1  0
  9 36  1  0
 10 37  1  0
 10 38  1  0
 11 39  1  0
 11 40  1  0
 12 41  1  0
 12 42  1  0
 13 43  1  0
 13 44  1  0
 14 45  1  0
 14 46  1  0
 15 47  1  0
 15 48  1  0
 16 49  1  0
 16 50  1  0
 17 51  1  0
 17 52  1  0
 17 53  1  0
M  END
$$$$
n-alkane C18H38
     RDKit          3D

 56 55  0  0  0  0  0  0  0  0999 V2000
   -2.6527    1.3437    0.8798 C   0  0  0  0  0  0  0  0  0  0  0  0
   -3.0979    1.0565    2.3051 C   0  0  0  0  0  0  0  0  0  0  0  0
   -4.0706   -0.1167    2.4150 C   0  0  0  0  0  0  0  0  0  0  0  0
   -3.5471   -1.4846    1.9625 C   0  0  0  0  0  0  0  0  0  0  0  0
   -2.4144   -2.0568    2.8228 C   0  0  0  0  0  0  0  0  0  0  0  0
   -1.0191   -1.7683    2.2618 C   0  0  0  0  0  0  0  0  0  0  0  0
    0.0683   -2.4258    3.1166 C   0  0  0  0  0  0  0  0  0  0  0  0
    1.4893   -2.0593    2.6777 C   0  0  0  0  0  0  0  0  0  0  0  0
    1.8493   -2.5821    1.2850 C   0  0  0  0  0  0  0  0  0  0  0  0
    3.3064   -2.2639    0.9341 C   0  0  0  0  0  0  0  0  0  0  0  0
    3.6989   -2.7371   -0.4698 C   0  0  0  0  0  0  0  0  0  0  0  0
    3.6320   -1.6547   -1.5537 C   0  0  0  0  0  0  0  0  0  0  0  0
    2.2307   -1.0934   -1.7985 C   0  0  0  0  0  0  0  0  0  0  0  0
    2.2147   -0.1496   -3.0040 C   0  0  0  0  0  0  0  0  0  0  0  0
    0.8151    0.3661   -3.3561 C   0  0  0  0  0  0  0  0  0  0  0  0
    0.2356    1.3166   -2.3048 C   0  0  0  0  0  0  0  0  0  0  0  0
   -1.1593    1.8372   -2.6624 C   0  0  0  0  0  0  0  0  0  0  0  0
   -1.1837    2.7239   -3.8978 C   0  0  0  0  0  0  0  0  0  0  0  0
   -2.0744    0.5164    0.4597 H   0  0  0  0  0  0  0  0  0  0  0  0
   -2.0191    2.2361    0.8579 H   0  0  0  0  0  0  0  0  0  0  0  0
   -3.5142    1.5255    0.2294 H   0  0  0  0  0  0  0  0  0  0  0  0
   -2.2259    0.8930    2.9458 H   0  0  0  0  0  0  0  0  0  0  0  0
   -3.5970    1.9521    2.6953 H   0  0  0  0  0  0  0  0  0  0  0  0
   -4.4053   -0.1935    3.4573 H   0  0  0  0  0  0  0  0  0  0  0  0
   -4.9668    0.1173    1.8262 H   0  0  0  0  0  0  0  0  0  0  0  0
   -4.3940   -2.1804    2.0323 H   0  0  0  0  0  0  0  0  0  0  0  0
   -3.2654   -1.4645    0.9040 H   0  0  0  0  0  0  0  0  0  0  0  0
   -2.5403   -3.1466    2.8647 H   0  0  0  0  0  0  0  0  0  0  0  0
   -2.4950   -1.6947    3.8545 H   0  0  0  0  0  0  0  0  0  0  0  0
   -0.8377   -0.6911    2.2205 H   0  0  0  0  0  0  0  0  0  0  0  0
   -0.9647   -2.1458    1.2347 H   0  0  0  0  0  0  0  0  0  0  0  0
   -0.0577   -2.1117    4.1603 H   0  0  0  0  0  0  0  0  0  0  0  0
   -0.0532   -3.5157    3.0974 H   0  0  0  0  0  0  0  0  0  0  0  0
    1.6116   -0.9696    2.7068 H   0  0  0  0  0  0  0  0  0  0  0  0
    2.1923   -2.4756    3.4099 H   0  0  0  0  0  0  0  0  0  0  0  0
    1.1811   -2.1421    0.5407 H   0  0  0  0  0  0  0  0  0  0  0  0
    1.6959   -3.6676    1.2515 H   0  0  0  0  0  0  0  0  0  0  0  0
    3.5053   -1.1918    1.0477 H   0  0  0  0  0  0  0  0  0  0  0  0
    3.9477   -2.7792    1.6608 H   0  0  0  0  0  0  0  0  0  0  0  0
    3.0996   -3.6053   -0.7690 H   0  0  0  0  0  0  0  0  0  0  0  0
    4.7400   -3.0829   -0.4290 H   0  0  0  0  0  0  0  0  0  0  0  0
    4.3122   -0.8350   -1.2911 H   0  0  0  0  0  0  0  0  0  0  0  0
    4.0139   -2.0894   -2.4861 H   0  0  0  0  0  0  0  0  0  0  0  0
    1.5276   -1.9170   -1.9691 H   0  0  0  0  0  0  0  0  0  0  0  0
    1.9001   -0.5499   -0.9083 H   0  0  0  0  0  0  0  0  0  0  0  0
    2.6097   -0.6823   -3.8782 H   0  0  0  0  0  0  0  0  0  0  0  0
    2.8857    0.6986   -2.8216 H   0  0  0  0  0  0  0  0  0  0  0  0
    0.8884    0.8866   -4.3176 H   0  0  0  0  0  0  0  0  0  0  0  0
    0.1363   -0.4822   -3.5052 H   0  0  0  0  0  0  0  0  0  0  0  0
    0.1594    0.7991   -1.3419 H   0  0  0  0  0  0  0  0  0  0  0  0
    0.9160    2.1639   -2.1569 H   0  0  0  0  0  0  0  0  0  0  0  0
   -1.5387    2.4188   -1.8141 H   0  0  0  0  0  0  0  0  0  0  0  0
   -1.8473    0.9954   -2.8025 H   0  0  0  0  0  0  0  0  0  0  0  0
   -0.9403    2.1599   -4.8027 H   0  0  0  0  0  0  0  0  0  0  0  0
   -2.1832    3.1495   -4.0338 H   0  0  0  0  0  0  0  0  0  0  0  0
   -0.4737    3.5513   -3.8023 H   0  0  0  0  0  0  0  0  0  0  0  0
  1  2  1  0
  2  3  1  0
  3  4  1  0
  4  5  1  0
  5  6  1  0
  6  7  1  0
  7  8  1  0
  8  9  1  0
  9 10  1  0
 10 11  1  0
 11 12  1  0
 12 13  1  0
 13 14  1  0
 14 15  1  0
 15 16  1  0
 16 17  1  0
 17 18  1  0
  1 19  1  0
  1 20  1  0
  1 21  1  0
  2 22  1  0
  2 23  1  0
  3 24  1  0
  3 25  1  0
  4 26  1  0
  4 27  1  0
  5 28  1  0
  5 29  1  0
  6 30  1  0
  6 31  1  0
  7 32  1  0
  7 33  1  0
  8 34  1  0
  8 35  1  0
  9 36  1  0
  9 37  1  0
 10 38  1  0
 10 39  1  0
 11 40  1  0
 11 41  1  0
 12 42  1  0
 12 43  1  0
 13 44  1  0
 13 45  1  0
 14 46  1  0
 14 47  1  0
 15 48  1  0
 15 49  1  0
 16 50  1  0
 16 51  1  0
 17 52  1  0
 17 53  1  0
 18 54  1  0
 18 55  1  0
 18 56  1  0
M  END
$$$$
n-alkane C19H40
     RDKit          3D

 59 58  0  0  0  0  0  0  0  0999 V2000
   -2.2291    1.4018    5.7782 C   0  0  0  0  0  0  0  0  0  0  0  0
   -2.0350    1.0661    4.3071 C   0  0  0  0  0  0  0  0  0  0  0  0
   -3.3766    0.8642    3.6004 C   0  0  0  0  0  0  0  0  0  0  0  0
   -3.2406    0.5874    2.0988 C   0  0  0  0  0  0  0  0  0  0  0  0
   -3.2642   -0.8965    1.7146 C   0  0  0  0  0  0  0  0  0  0  0  0
   -2.0941   -1.7487    2.2082 C   0  0  0  0  0  0  0  0  0  0  0  0
   -0.7416   -1.2986    1.6507 C   0  0  0  0  0  0  0  0  0  0  0  0
    0.3802   -2.2451    2.0869 C   0  0  0  0  0  0  0  0  0  0  0  0
    1.7764   -1.7760    1.6638 C   0  0  0  0  0  0  0  0  0  0  0  0
    1.9463   -1.6767    0.1466 C   0  0  0  0  0  0  0  0  0  0  0  0
    3.3926   -1.3487   -0.2392 C   0  0  0  0  0  0  0  0  0  0  0  0
    3.5892   -1.2612   -1.7569 C   0  0  0  0  0  0  0  0  0  0  0  0
    2.9718    0.0032   -2.3611 C   0  0  0  0  0  0  0  0  0  0  0  0
    3.0751    0.0662   -3.8881 C   0  0  0  0  0  0  0  0  0  0  0  0
    2.3594   -1.0568   -4.6494 C   0  0  0  0  0  0  0  0  0  0  0  0
    0.9012   -1.3109   -4.2506 C   0  0  0  0  0  0  0  0  0  0  0  0
   -0.0069   -0.0956   -4.4534 C   0  0  0  0  0  0  0  0  0  0  0  0
   -1.4737   -0.3807   -4.1188 C   0  0  0  0  0  0  0  0  0  0  0  0
   -1.7156   -0.6491   -2.6402 C   0  0  0  0  0  0  0  0  0  0  0  0
   -2.7539    0.5942    6.2984 H   0  0  0  0  0  0  0  0  0  0  0  0
   -2.8089    2.3226    5.8981 H   0  0  0  0  0  0  0  0  0  0  0  0
   -1.2594    1.5458    6.2649 H   0  0  0  0  0  0  0  0  0  0  0  0
   -1.4809    1.8802    3.8255 H   0  0  0  0  0  0  0  0  0  0  0  0
   -1.4167    0.1679    4.2333 H   0  0  0  0  0  0  0  0  0  0  0  0
   -3.9615    1.7854    3.7214 H   0  0  0  0  0  0  0  0  0  0  0  0
   -3.9497    0.0670    4.0882 H   0  0  0  0  0  0  0  0  0  0  0  0
   -2.3568    1.0852    1.6852 H   0  0  0  0  0  0  0  0  0  0  0  0
   -4.1031    1.0509    1.6012 H   0  0  0  0  0  0  0  0  0  0  0  0
   -3.3088   -0.9654    0.6201 H   0  0  0  0  0  0  0  0  0  0  0  0
   -4.1968   -1.3418    2.0836 H   0  0  0  0  0  0  0  0  0  0  0  0
   -2.2769   -2.7847    1.8952 H   0  0  0  0  0  0  0  0  0  0  0  0
   -2.0716   -1.7631    3.3029 H   0  0  0  0  0  0  0  0  0  0  0  0
   -0.5084   -0.2841    1.9903 H   0  0  0  0  0  0  0  0  0  0  0  0
   -0.8029   -1.2701    0.5571 H   0  0  0  0  0  0  0  0  0  0  0  0
    0.3678   -2.3400    3.1798 H   0  0  0  0  0  0  0  0  0  0  0  0
    0.1941   -3.2469    1.6808 H   0  0  0  0  0  0  0  0  0  0  0  0
    2.5120   -2.4833    2.0661 H   0  0  0  0  0  0  0  0  0  0  0  0
    1.9899   -0.8026    2.1220 H   0  0  0  0  0  0  0  0  0  0  0  0
    1.2777   -0.9024   -0.2409 H   0  0  0  0  0  0  0  0  0  0  0  0
    1.6509   -2.6245   -0.3193 H   0  0  0  0  0  0  0  0  0  0  0  0
    3.7066   -0.4104    0.2333 H   0  0  0  0  0  0  0  0  0  0  0  0
    4.0496   -2.1367    0.1492 H   0  0  0  0  0  0  0  0  0  0  0  0
    4.6648   -1.2624   -1.9720 H   0  0  0  0  0  0  0  0  0  0  0  0
    3.1733   -2.1615   -2.2214 H   0  0  0  0  0  0  0  0  0  0  0  0
    3.4871    0.8785   -1.9455 H   0  0  0  0  0  0  0  0  0  0  0  0
    1.9234    0.1042   -2.0665 H   0  0  0  0  0  0  0  0  0  0  0  0
    2.6764    1.0323   -4.2209 H   0  0  0  0  0  0  0  0  0  0  0  0
    4.1335    0.0621   -4.1773 H   0  0  0  0  0  0  0  0  0  0  0  0
    2.4018   -0.8277   -5.7217 H   0  0  0  0  0  0  0  0  0  0  0  0
    2.9199   -1.9907   -4.5216 H   0  0  0  0  0  0  0  0  0  0  0  0
    0.5219   -2.1430   -4.8569 H   0  0  0  0  0  0  0  0  0  0  0  0
    0.8622   -1.6491   -3.2102 H   0  0  0  0  0  0  0  0  0  0  0  0
    0.3381    0.7487   -3.8465 H   0  0  0  0  0  0  0  0  0  0  0  0
    0.0540    0.2223   -5.5015 H   0  0  0  0  0  0  0  0  0  0  0  0
   -1.8350   -1.2306   -4.7092 H   0  0  0  0  0  0  0  0  0  0  0  0
   -2.0720    0.4890   -4.4157 H   0  0  0  0  0  0  0  0  0  0  0  0
   -1.3309    0.1692   -2.0231 H   0  0  0  0  0  0  0  0  0  0  0  0
   -2.7889   -0.7431   -2.4462 H   0  0  0  0  0  0  0  0  0  0  0  0
   -1.2394   -1.5791   -2.3164 H   0  0  0  0  0  0  0  0  0  0  0  0
  1  2  1  0
  2  3  1  0
  3  4  1  0
  4  5  1  0
  5  6  1  0
  6  7  1  0
  7  8  1  0
  8  9  1  0
  9 10  1  0
 10 11  1  0
 11 12  1  0
 12 13  1  0
 13 14  1  0
 14 15  1  0
 15 16  1  0
 16 17  1  0
 17 18  1  0
 18 19  1  0
  1 20  1  0
  1 21  1  0
  1 22  1  0
  2 23  1  0
  2 24  1  0
  3 25  1  0
  3 26  1  0
  4 27  1  0
  4 28  1  0
  5 29  1  0
  5 30  1  0
  6 31  1  0
  6 32  1  0
  7 33  1  0
  7 34  1  0
  8 35  1  0
  8 36  1  0
  9 37  1  0
  9 38  1  0
 10 39  1  0
 10 40  1  0
 11 41  1  0
 11 42  1  0
 12 43  1  0
 12 44  1  0
 13 45  1  0
 13 46  1  0
 14 47  1  0
 14 48  1  0
 15 49  1  0
 15 50  1  0
 16 51  1  0
 16 52  1  0
 17 53  1  0
 17 54  1  0
 18 55  1  0
 18 56  1  0
 19 57  1  0
 19 58  1  0
 19 59  1  0
M  END
$$$$
n-alkane C20H42
     RDKit          3D

 62 61  0  0  0  0  0  0  0  0999 V2000
   -3.4591    1.5202    0.7746 C   0  0  0  0  0  0  0  0  0  0  0  0
   -3.9217    0.2114    1.3969 C   0  0  0  0  0  0  0  0  0  0  0  0
   -2.7854   -0.7841    1.6457 C   0  0  0  0  0  0  0  0  0  0  0  0
   -2.1387   -1.2945    0.3562 C   0  0  0  0  0  0  0  0  0  0  0  0
   -0.9869   -2.2739    0.6059 C   0  0  0  0  0  0  0  0  0  0  0  0
   -1.4276   -3.5996    1.2245 C   0  0  0  0  0  0  0  0  0  0  0  0
   -0.3787   -4.7143    1.1256 C   0  0  0  0  0  0  0  0  0  0  0  0
    0.7460   -4.6778    2.1668 C   0  0  0  0  0  0  0  0  0  0  0  0
    1.8532   -3.6338    1.9868 C   0  0  0  0  0  0  0  0  0  0  0  0
    2.5115   -3.6610    0.6055 C   0  0  0  0  0  0  0  0  0  0  0  0
    3.8128   -2.8541    0.5250 C   0  0  0  0  0  0  0  0  0  0  0  0
    3.7177   -1.3734    0.9078 C   0  0  0  0  0  0  0  0  0  0  0  0
    2.6392   -0.5595    0.1889 C   0  0  0  0  0  0  0  0  0  0  0  0
    2.8188   -0.4804   -1.3278 C   0  0  0  0  0  0  0  0  0  0  0  0
    1.6132    0.1439   -2.0410 C   0  0  0  0  0  0  0  0  0  0  0  0
    1.3234    1.5861   -1.6202 C   0  0  0  0  0  0  0  0  0  0  0  0
    0.1564    2.1721   -2.4202 C   0  0  0  0  0  0  0  0  0  0  0  0
   -0.1370    3.6130   -1.9959 C   0  0  0  0  0  0  0  0  0  0  0  0
   -1.2288    4.2803   -2.8349 C   0  0  0  0  0  0  0  0  0  0  0  0
   -2.6061    3.6667   -2.6366 C   0  0  0  0  0  0  0  0  0  0  0  0
   -3.0870    1.3716   -0.2431 H   0  0  0  0  0  0  0  0  0  0  0  0
   -4.2943    2.2259    0.7202 H   0  0  0  0  0  0  0  0  0  0  0  0
   -2.6648    1.9808    1.3703 H   0  0  0  0  0  0  0  0  0  0  0  0
   -4.4028    0.4345    2.3567 H   0  0  0  0  0  0  0  0  0  0  0  0
   -4.6861   -0.2464    0.7583 H   0  0  0  0  0  0  0  0  0  0  0  0
   -3.1970   -1.6300    2.2082 H   0  0  0  0  0  0  0  0  0  0  0  0
   -2.0242   -0.3187    2.2835 H   0  0  0  0  0  0  0  0  0  0  0  0
   -1.7333   -0.4487   -0.2108 H   0  0  0  0  0  0  0  0  0  0  0  0
   -2.8965   -1.7682   -0.2793 H   0  0  0  0  0  0  0  0  0  0  0  0
   -0.2566   -1.7879    1.2560 H   0  0  0  0  0  0  0  0  0  0  0  0
   -0.4961   -2.4657   -0.3554 H   0  0  0  0  0  0  0  0  0  0  0  0
   -1.7172   -3.4555    2.2715 H   0  0  0  0  0  0  0  0  0  0  0  0
   -2.3250   -3.9457    0.6959 H   0  0  0  0  0  0  0  0  0  0  0  0
   -0.9142   -5.6608    1.2823 H   0  0  0  0  0  0  0  0  0  0  0  0
    0.0258   -4.7731    0.1095 H   0  0  0  0  0  0  0  0  0  0  0  0
    1.2249   -5.6662    2.1646 H   0  0  0  0  0  0  0  0  0  0  0  0
    0.3104   -4.5596    3.1667 H   0  0  0  0  0  0  0  0  0  0  0  0
    1.4627   -2.6369    2.2064 H   0  0  0  0  0  0  0  0  0  0  0  0
    2.6184   -3.8287    2.7493 H   0  0  0  0  0  0  0  0  0  0  0  0
    2.7441   -4.6995    0.3382 H   0  0  0  0  0  0  0  0  0  0  0  0
    1.8119   -3.2964   -0.1534 H   0  0  0  0  0  0  0  0  0  0  0  0
    4.2118   -2.9407   -0.4927 H   0  0  0  0  0  0  0  0  0  0  0  0
    4.5592   -3.3261    1.1767 H   0  0  0  0  0  0  0  0  0  0  0  0
    3.5417   -1.2979    1.9880 H   0  0  0  0  0  0  0  0  0  0  0  0
    4.6945   -0.9067    0.7289 H   0  0  0  0  0  0  0  0  0  0  0  0
    2.6581    0.4542    0.6065 H   0  0  0  0  0  0  0  0  0  0  0  0
    1.6531   -0.9671    0.4214 H   0  0  0  0  0  0  0  0  0  0  0  0
    3.7247    0.0917   -1.5607 H   0  0  0  0  0  0  0  0  0  0  0  0
    2.9617   -1.4836   -1.7435 H   0  0  0  0  0  0  0  0  0  0  0  0
    1.8014    0.1145   -3.1214 H   0  0  0  0  0  0  0  0  0  0  0  0
    0.7260   -0.4755   -1.8601 H   0  0  0  0  0  0  0  0  0  0  0  0
    1.0748    1.6250   -0.5538 H   0  0  0  0  0  0  0  0  0  0  0  0
    2.2199    2.1994   -1.7701 H   0  0  0  0  0  0  0  0  0  0  0  0
   -0.7312    1.5478   -2.2678 H   0  0  0  0  0  0  0  0  0  0  0  0
    0.3945    2.1452   -3.4903 H   0  0  0  0  0  0  0  0  0  0  0  0
   -0.4196    3.6379   -0.9364 H   0  0  0  0  0  0  0  0  0  0  0  0
    0.7800    4.2076   -2.0925 H   0  0  0  0  0  0  0  0  0  0  0  0
   -0.9605    4.2410   -3.8970 H   0  0  0  0  0  0  0  0  0  0  0  0
   -1.2788    5.3407   -2.5599 H   0  0  0  0  0  0  0  0  0  0  0  0
   -2.8944    3.6845   -1.5810 H   0  0  0  0  0  0  0  0  0  0  0  0
   -3.3541    4.2336   -3.2003 H   0  0  0  0  0  0  0  0  0  0  0  0
   -2.6407    2.6317   -2.9885 H   0  0  0  0  0  0  0  0  0  0  0  0
  1  2  1  0
  2  3  1  0
  3  4  1  0
  4  5  1  0
  5  6  1  0
  6  7  1  0
  7  8  1  0
  8  9  1  0
  9 10  1  0
 10 11  1  0
 11 12  1  0
 12 13  1  0
 13 14  1  0
 14 15  1  0
 15 16  1  0
 16 17  1  0
 17 18  1  0
 18 19  1  0
 19 20  1  0
  1 21  1  0
  1 22  1  0
  1 23  1  0
  2 24  1  0
  2 25  1  0
  3 26  1  0
  3 27  1  0
  4 28  1  0
  4 29  1  0
  5 30  1  0
  5 31  1  0
  6 32  1  0
  6 33  1  0
  7 34  1  0
  7 35  1  0
  8 36  1  0
  8 37  1  0
  9 38  1  0
  9 39  1  0
 10 40  1  0
 10 41  1  0
 11 42  1  0
 11 43  1  0
 12 44  1  0
 12 45  1  0
 13 46  1  0
 13 47  1  0
 14 48  1  0
 14 49  1  0
 15 50  1  0
 15 51  1  0
 16 52  1  0
 16 53  1  0
 17 54  1  0
 17 55  1  0
 18 56  1  0
 18 57  1  0
 19 58  1  0
 19 59  1  0
 20 60  1  0
 20 61  1  0
 20 62  1  0
M  END
$$$$
n-alkane C21H44
     RDKit          3D

 65 64  0  0  0  0  0  0  0  0999 V2000
   -4.0813   -1.4085    4.3837 C   0  0  0  0  0  0  0  0  0  0  0  0
   -2.6971   -1.3761    3.7549 C   0  0  0  0  0  0  0  0  0  0  0  0
   -2.6655   -0.6977    2.3835 C   0  0  0  0  0  0  0  0  0  0  0  0
   -3.5323   -1.3517    1.3029 C   0  0  0  0  0  0  0  0  0  0  0  0
   -3.2287   -2.8240    1.0097 C   0  0  0  0  0  0  0  0  0  0  0  0
   -1.7829   -3.1352    0.6086 C   0  0  0  0  0  0  0  0  0  0  0  0
   -1.3319   -2.3999   -0.6561 C   0  0  0  0  0  0  0  0  0  0  0  0
    0.0269   -2.8767   -1.1793 C   0  0  0  0  0  0  0  0  0  0  0  0
    1.1841   -2.5799   -0.2218 C   0  0  0  0  0  0  0  0  0  0  0  0
    2.5261   -2.9871   -0.8357 C   0  0  0  0  0  0  0  0  0  0  0  0
    3.7163   -2.7622    0.0977 C   0  0  0  0  0  0  0  0  0  0  0  0
    3.9737   -1.3225    0.5575 C   0  0  0  0  0  0  0  0  0  0  0  0
    4.3812   -0.3469   -0.5527 C   0  0  0  0  0  0  0  0  0  0  0  0
    3.1990    0.4010   -1.1755 C   0  0  0  0  0  0  0  0  0  0  0  0
    3.6713    1.4464   -2.1857 C   0  0  0  0  0  0  0  0  0  0  0  0
    2.5420    2.0865   -3.0013 C   0  0  0  0  0  0  0  0  0  0  0  0
    1.5133    2.8670   -2.1760 C   0  0  0  0  0  0  0  0  0  0  0  0
    0.2665    2.0431   -1.8350 C   0  0  0  0  0  0  0  0  0  0  0  0
   -0.7388    2.8725   -1.0319 C   0  0  0  0  0  0  0  0  0  0  0  0
   -1.9570    2.0694   -0.5719 C   0  0  0  0  0  0  0  0  0  0  0  0
   -2.8169    1.5596   -1.7180 C   0  0  0  0  0  0  0  0  0  0  0  0
   -4.0233   -1.8149    5.3986 H   0  0  0  0  0  0  0  0  0  0  0  0
   -4.5085   -0.4026    4.4458 H   0  0  0  0  0  0  0  0  0  0  0  0
   -4.7667   -2.0415    3.8126 H   0  0  0  0  0  0  0  0  0  0  0  0
   -2.0240   -0.8277    4.4251 H   0  0  0  0  0  0  0  0  0  0  0  0
   -2.3022   -2.3954    3.6875 H   0  0  0  0  0  0  0  0  0  0  0  0
   -1.6254   -0.6524    2.0397 H   0  0  0  0  0  0  0  0  0  0  0  0
   -2.9887    0.3449    2.4974 H   0  0  0  0  0  0  0  0  0  0  0  0
   -4.5890   -1.2647    1.5832 H   0  0  0  0  0  0  0  0  0  0  0  0
   -3.4283   -0.7726    0.3784 H   0  0  0  0  0  0  0  0  0  0  0  0
   -3.8976   -3.1589    0.2068 H   0  0  0  0  0  0  0  0  0  0  0  0
   -3.4861   -3.4304    1.8861 H   0  0  0  0  0  0  0  0  0  0  0  0
   -1.7035   -4.2168    0.4421 H   0  0  0  0  0  0  0  0  0  0  0  0
   -1.1135   -2.9007    1.4427 H   0  0  0  0  0  0  0  0  0  0  0  0
   -1.2847   -1.3211   -0.4704 H   0  0  0  0  0  0  0  0  0  0  0  0
   -2.0765   -2.5541   -1.4466 H   0  0  0  0  0  0  0  0  0  0  0  0
    0.2182   -2.3773   -2.1373 H   0  0  0  0  0  0  0  0  0  0  0  0
   -0.0164   -3.9528   -1.3870 H   0  0  0  0  0  0  0  0  0  0  0  0
    1.0443   -3.1252    0.7181 H   0  0  0  0  0  0  0  0  0  0  0  0
    1.1820   -1.5118    0.0192 H   0  0  0  0  0  0  0  0  0  0  0  0
    2.6890   -2.4673   -1.7853 H   0  0  0  0  0  0  0  0  0  0  0  0
    2.4891   -4.0561   -1.0825 H   0  0  0  0  0  0  0  0  0  0  0  0
    4.6197   -3.1416   -0.3964 H   0  0  0  0  0  0  0  0  0  0  0  0
    3.5777   -3.3840    0.9916 H   0  0  0  0  0  0  0  0  0  0  0  0
    4.8076   -1.3694    1.2709 H   0  0  0  0  0  0  0  0  0  0  0  0
    3.1209   -0.9347    1.1253 H   0  0  0  0  0  0  0  0  0  0  0  0
    5.0564    0.3986   -0.1129 H   0  0  0  0  0  0  0  0  0  0  0  0
    4.9552   -0.8680   -1.3279 H   0  0  0  0  0  0  0  0  0  0  0  0
    2.5258   -0.2984   -1.6765 H   0  0  0  0  0  0  0  0  0  0  0  0
    2.6317    0.8933   -0.3779 H   0  0  0  0  0  0  0  0  0  0  0  0
    4.3709    0.9782   -2.8895 H   0  0  0  0  0  0  0  0  0  0  0  0
    4.2326    2.2311   -1.6634 H   0  0  0  0  0  0  0  0  0  0  0  0
    3.0134    2.7881   -3.7019 H   0  0  0  0  0  0  0  0  0  0  0  0
    2.0477    1.3258   -3.6173 H   0  0  0  0  0  0  0  0  0  0  0  0
    1.9741    3.2648   -1.2642 H   0  0  0  0  0  0  0  0  0  0  0  0
    1.1909    3.7344   -2.7666 H   0  0  0  0  0  0  0  0  0  0  0  0
   -0.1963    1.6981   -2.7666 H   0  0  0  0  0  0  0  0  0  0  0  0
    0.5374    1.1513   -1.2623 H   0  0  0  0  0  0  0  0  0  0  0  0
   -0.2408    3.2778   -0.1424 H   0  0  0  0  0  0  0  0  0  0  0  0
   -1.0696    3.7317   -1.6282 H   0  0  0  0  0  0  0  0  0  0  0  0
   -1.6324    1.2241    0.0451 H   0  0  0  0  0  0  0  0  0  0  0  0
   -2.5739    2.7105    0.0690 H   0  0  0  0  0  0  0  0  0  0  0  0
   -2.2907    0.8029   -2.3073 H   0  0  0  0  0  0  0  0  0  0  0  0
   -3.1102    2.3771   -2.3840 H   0  0  0  0  0  0  0  0  0  0  0  0
   -3.7294    1.0983   -1.3273 H   0  0  0  0  0  0  0  0  0  0  0  0
  1  2  1  0
  2  3  1  0
  3  4  1  0
  4  5  1  0
  5  6  1  0
  6  7  1  0
  7  8  1  0
  8  9  1  0
  9 10  1  0
 10 11  1  0
 11 12  1  0
 12 13  1  0
 13 14  1  0
 14 15  1  0
 15 16  1  0
 16 17  1  0
 17 18  1  0
 18 19  1  0
 19 20  1  0
 20 21  1  0
  1 22  1  0
  1 23  1  0
  1 24  1  0
  2 25  1  0
  2 26  1  0
  3 27  1  0
  3 28  1  0
  4 29  1  0
  4 30  1  0
  5 31  1  0
  5 32  1  0
  6 33  1  0
  6 34  1  0
  7 35  1  0
  7 36  1  0
  8 37  1  0
  8 38  1  0
  9 39  1  0
  9 40  1  0
 10 41  1  0
 10 42  1  0
 11 43  1  0
 11 44  1  0
 12 45  1  0
 12 46  1  0
 13 47  1  0
 13 48  1  0
 14 49  1  0
 14 50  1  0
 15 51  1  0
 15 52  1  0
 16 53  1  0
 16 54  1  0
 17 55  1  0
 17 56  1  0
 18 57  1  0
 18 58  1  0
 19 59  1  0
 19 60  1  0
 20 61  1  0
 20 62  1  0
 21 63  1  0
 21 64  1  0
 21 65  1  0
M  END
$$$$
n-alkane C22H46
     RDKit          3D

 68 67  0  0  0  0  0  0  0  0999 V2000
   -4.0650   -7.2475    2.2969 C   0  0  0  0  0  0  0  0  0  0  0  0
   -4.2439   -6.7295    0.8785 C   0  0  0  0  0  0  0  0  0  0  0  0
   -3.0910   -5.8440    0.4003 C   0  0  0  0  0  0  0  0  0  0  0  0
   -2.8281   -4.5827    1.2302 C   0  0  0  0  0  0  0  0  0  0  0  0
   -4.0213   -3.6253    1.2729 C   0  0  0  0  0  0  0  0  0  0  0  0
   -3.7378   -2.3347    2.0438 C   0  0  0  0  0  0  0  0  0  0  0  0
   -2.6302   -1.4279    1.4933 C   0  0  0  0  0  0  0  0  0  0  0  0
   -2.9155   -0.8233    0.1132 C   0  0  0  0  0  0  0  0  0  0  0  0
   -2.3905   -1.6167   -1.0886 C   0  0  0  0  0  0  0  0  0  0  0  0
   -0.8611   -1.6695   -1.1633 C   0  0  0  0  0  0  0  0  0  0  0  0
   -0.3968   -2.3868   -2.4349 C   0  0  0  0  0  0  0  0  0  0  0  0
    1.1263   -2.5310   -2.5330 C   0  0  0  0  0  0  0  0  0  0  0  0
    1.8244   -1.4432   -3.3574 C   0  0  0  0  0  0  0  0  0  0  0  0
    1.7514   -0.0173   -2.8099 C   0  0  0  0  0  0  0  0  0  0  0  0
    2.4298    0.1455   -1.4480 C   0  0  0  0  0  0  0  0  0  0  0  0
    2.3658    1.5983   -0.9686 C   0  0  0  0  0  0  0  0  0  0  0  0
    3.0431    1.7619    0.3938 C   0  0  0  0  0  0  0  0  0  0  0  0
    2.9060    3.1713    0.9766 C   0  0  0  0  0  0  0  0  0  0  0  0
    3.6415    4.2399    0.1647 C   0  0  0  0  0  0  0  0  0  0  0  0
    3.5687    5.6052    0.8523 C   0  0  0  0  0  0  0  0  0  0  0  0
    4.2991    6.6756    0.0416 C   0  0  0  0  0  0  0  0  0  0  0  0
    4.2296    8.0336    0.7217 C   0  0  0  0  0  0  0  0  0  0  0  0
   -4.8652   -7.9530    2.5426 H   0  0  0  0  0  0  0  0  0  0  0  0
   -3.1086   -7.7682    2.4076 H   0  0  0  0  0  0  0  0  0  0  0  0
   -4.1045   -6.4350    3.0283 H   0  0  0  0  0  0  0  0  0  0  0  0
   -5.1957   -6.1930    0.8014 H   0  0  0  0  0  0  0  0  0  0  0  0
   -4.3201   -7.5890    0.2014 H   0  0  0  0  0  0  0  0  0  0  0  0
   -3.2867   -5.5500   -0.6386 H   0  0  0  0  0  0  0  0  0  0  0  0
   -2.1710   -6.4418    0.3817 H   0  0  0  0  0  0  0  0  0  0  0  0
   -2.5368   -4.8572    2.2505 H   0  0  0  0  0  0  0  0  0  0  0  0
   -1.9614   -4.0778    0.7905 H   0  0  0  0  0  0  0  0  0  0  0  0
   -4.3634   -3.3920    0.2596 H   0  0  0  0  0  0  0  0  0  0  0  0
   -4.8630   -4.1228    1.7694 H   0  0  0  0  0  0  0  0  0  0  0  0
   -4.6687   -1.7563    2.1009 H   0  0  0  0  0  0  0  0  0  0  0  0
   -3.4816   -2.5963    3.0786 H   0  0  0  0  0  0  0  0  0  0  0  0
   -2.5390   -0.5910    2.1991 H   0  0  0  0  0  0  0  0  0  0  0  0
   -1.6639   -1.9380    1.5233 H   0  0  0  0  0  0  0  0  0  0  0  0
   -3.9948   -0.6686   -0.0049 H   0  0  0  0  0  0  0  0  0  0  0  0
   -2.4618    0.1759    0.0775 H   0  0  0  0  0  0  0  0  0  0  0  0
   -2.7950   -2.6321   -1.0912 H   0  0  0  0  0  0  0  0  0  0  0  0
   -2.7678   -1.1332   -1.9988 H   0  0  0  0  0  0  0  0  0  0  0  0
   -0.4676   -0.6500   -1.1322 H   0  0  0  0  0  0  0  0  0  0  0  0
   -0.4586   -2.1972   -0.2924 H   0  0  0  0  0  0  0  0  0  0  0  0
   -0.8308   -3.3952   -2.4277 H   0  0  0  0  0  0  0  0  0  0  0  0
   -0.7931   -1.8841   -3.3249 H   0  0  0  0  0  0  0  0  0  0  0  0
    1.5775   -2.6184   -1.5386 H   0  0  0  0  0  0  0  0  0  0  0  0
    1.3330   -3.4843   -3.0377 H   0  0  0  0  0  0  0  0  0  0  0  0
    2.8803   -1.7219   -3.4675 H   0  0  0  0  0  0  0  0  0  0  0  0
    1.4037   -1.4459   -4.3709 H   0  0  0  0  0  0  0  0  0  0  0  0
    2.2465    0.6464   -3.5304 H   0  0  0  0  0  0  0  0  0  0  0  0
    0.7093    0.3152   -2.7615 H   0  0  0  0  0  0  0  0  0  0  0  0
    3.4773   -0.1713   -1.5206 H   0  0  0  0  0  0  0  0  0  0  0  0
    1.9494   -0.4983   -0.7037 H   0  0  0  0  0  0  0  0  0  0  0  0
    2.8522    2.2417   -1.7101 H   0  0  0  0  0  0  0  0  0  0  0  0
    1.3181    1.9147   -0.8986 H   0  0  0  0  0  0  0  0  0  0  0  0
    4.1048    1.4983    0.3139 H   0  0  0  0  0  0  0  0  0  0  0  0
    2.5952    1.0549    1.1033 H   0  0  0  0  0  0  0  0  0  0  0  0
    3.3073    3.1585    1.9976 H   0  0  0  0  0  0  0  0  0  0  0  0
    1.8442    3.4336    1.0585 H   0  0  0  0  0  0  0  0  0  0  0  0
    3.2026    4.3200   -0.8360 H   0  0  0  0  0  0  0  0  0  0  0  0
    4.6910    3.9483    0.0383 H   0  0  0  0  0  0  0  0  0  0  0  0
    4.0119    5.5372    1.8533 H   0  0  0  0  0  0  0  0  0  0  0  0
    2.5190    5.8952    0.9826 H   0  0  0  0  0  0  0  0  0  0  0  0
    5.3500    6.3920   -0.0884 H   0  0  0  0  0  0  0  0  0  0  0  0
    3.8573    6.7515   -0.9587 H   0  0  0  0  0  0  0  0  0  0  0  0
    4.7580    8.7838    0.1251 H   0  0  0  0  0  0  0  0  0  0  0  0
    3.1917    8.3615    0.8379 H   0  0  0  0  0  0  0  0  0  0  0  0
    4.6927    8.0001    1.7130 H   0  0  0  0  0  0  0  0  0  0  0  0
  1  2  1  0
  2  3  1  0
  3  4  1  0
  4  5  1  0
  5  6  1  0
  6  7  1  0
  7  8  1  0
  8  9  1  0
  9 10  1  0
 10 11  1  0
 11 12  1  0
 12 13  1  0
 13 14  1  0
 14 15  1  0
 15 16  1  0
 16 17  1  0
 17 18  1  0
 18 19  1  0
 19 20  1  0
 20 21  1  0
 21 22  1  0
  1 23  1  0
  1 24  1  0
  1 25  1  0
  2 26  1  0
  2 27  1  0
  3 28  1  0
  3 29  1  0
  4 30  1  0
  4 31  1  0
  5 32  1  0
  5 33  1  0
  6 34  1  0
  6 35  1  0
  7 36  1  0
  7 37  1  0
  8 38  1  0
  8 39  1  0
  9 40  1  0
  9 41  1  0
 10 42  1  0
 10 43  1  0
 11 44  1  0
 11 45  1  0
 12 46  1  0
 12 47  1  0
 13 48  1  0
 13 49  1  0
 14 50  1  0
 14 51  1  0
 15 52  1  0
 15 53  1  0
 16 54  1  0
 16 55  1  0
 17 56  1  0
 17 57  1  0
 18 58  1  0
 18 59  1  0
 19 60  1  0
 19 61  1  0
 20 62  1  0
 20 63  1  0
 21 64  1  0
 21 65  1  0
 22 66  1  0
 22 67  1  0
 22 68  1  0
M  END
$$$$
n-alkane C23H48
     RDKit          3D

 71 70  0  0  0  0  0  0  0  0999 V2000
   -5.5665   -4.8372   -1.0140 C   0  0  0  0  0  0  0  0  0  0  0  0
   -4.9410   -3.5727   -0.4465 C   0  0  0  0  0  0  0  0  0  0  0  0
   -3.7337   -3.0755   -1.2450 C   0  0  0  0  0  0  0  0  0  0  0  0
   -2.5612   -4.0548   -1.3570 C   0  0  0  0  0  0  0  0  0  0  0  0
   -1.9660   -4.4492   -0.0030 C   0  0  0  0  0  0  0  0  0  0  0  0
   -0.7232   -5.3247   -0.1816 C   0  0  0  0  0  0  0  0  0  0  0  0
   -0.1448   -5.8417    1.1394 C   0  0  0  0  0  0  0  0  0  0  0  0
    0.2778   -4.7707    2.1500 C   0  0  0  0  0  0  0  0  0  0  0  0
    1.3335   -3.8042    1.6073 C   0  0  0  0  0  0  0  0  0  0  0  0
    1.7943   -2.8239    2.6862 C   0  0  0  0  0  0  0  0  0  0  0  0
    2.9323   -1.8957    2.2457 C   0  0  0  0  0  0  0  0  0  0  0  0
    2.5671   -0.9415    1.1021 C   0  0  0  0  0  0  0  0  0  0  0  0
    3.0470   -1.4421   -0.2644 C   0  0  0  0  0  0  0  0  0  0  0  0
    2.5288   -0.6009   -1.4351 C   0  0  0  0  0  0  0  0  0  0  0  0
    3.0433    0.8409   -1.4261 C   0  0  0  0  0  0  0  0  0  0  0  0
    2.5782    1.6001   -2.6713 C   0  0  0  0  0  0  0  0  0  0  0  0
    3.1480    3.0186   -2.7698 C   0  0  0  0  0  0  0  0  0  0  0  0
    2.8101    3.9577   -1.6077 C   0  0  0  0  0  0  0  0  0  0  0  0
    1.3075    4.1652   -1.4082 C   0  0  0  0  0  0  0  0  0  0  0  0
    1.0315    5.1965   -0.3117 C   0  0  0  0  0  0  0  0  0  0  0  0
   -0.4703    5.4007   -0.1055 C   0  0  0  0  0  0  0  0  0  0  0  0
   -0.7460    6.4303    0.9900 C   0  0  0  0  0  0  0  0  0  0  0  0
   -2.2379    6.6359    1.1983 C   0  0  0  0  0  0  0  0  0  0  0  0
   -4.8892   -5.6921   -0.9296 H   0  0  0  0  0  0  0  0  0  0  0  0
   -5.8307   -4.7062   -2.0680 H   0  0  0  0  0  0  0  0  0  0  0  0
   -6.4803   -5.0835   -0.4639 H   0  0  0  0  0  0  0  0  0  0  0  0
   -4.6647   -3.7386    0.6004 H   0  0  0  0  0  0  0  0  0  0  0  0
   -5.6998   -2.7807   -0.4425 H   0  0  0  0  0  0  0  0  0  0  0  0
   -3.3759   -2.1441   -0.7885 H   0  0  0  0  0  0  0  0  0  0  0  0
   -4.0629   -2.8138   -2.2585 H   0  0  0  0  0  0  0  0  0  0  0  0
   -1.7812   -3.5799   -1.9657 H   0  0  0  0  0  0  0  0  0  0  0  0
   -2.8724   -4.9528   -1.9030 H   0  0  0  0  0  0  0  0  0  0  0  0
   -2.7078   -4.9974    0.5882 H   0  0  0  0  0  0  0  0  0  0  0  0
   -1.7089   -3.5405    0.5524 H   0  0  0  0  0  0  0  0  0  0  0  0
    0.0444   -4.7731   -0.7365 H   0  0  0  0  0  0  0  0  0  0  0  0
   -0.9829   -6.1932   -0.8002 H   0  0  0  0  0  0  0  0  0  0  0  0
    0.7221   -6.4747    0.9118 H   0  0  0  0  0  0  0  0  0  0  0  0
   -0.8845   -6.4954    1.6183 H   0  0  0  0  0  0  0  0  0  0  0  0
    0.6778   -5.2805    3.0356 H   0  0  0  0  0  0  0  0  0  0  0  0
   -0.5998   -4.2091    2.4904 H   0  0  0  0  0  0  0  0  0  0  0  0
    0.9115   -3.2437    0.7675 H   0  0  0  0  0  0  0  0  0  0  0  0
    2.1934   -4.3717    1.2326 H   0  0  0  0  0  0  0  0  0  0  0  0
    2.1376   -3.3883    3.5623 H   0  0  0  0  0  0  0  0  0  0  0  0
    0.9415   -2.2193    3.0195 H   0  0  0  0  0  0  0  0  0  0  0  0
    3.2038   -1.2876    3.1184 H   0  0  0  0  0  0  0  0  0  0  0  0
    3.8223   -2.4844    1.9933 H   0  0  0  0  0  0  0  0  0  0  0  0
    1.4872   -0.7537    1.0877 H   0  0  0  0  0  0  0  0  0  0  0  0
    3.0509    0.0218    1.3040 H   0  0  0  0  0  0  0  0  0  0  0  0
    4.1438   -1.4572   -0.2825 H   0  0  0  0  0  0  0  0  0  0  0  0
    2.7214   -2.4752   -0.4228 H   0  0  0  0  0  0  0  0  0  0  0  0
    1.4319   -0.6023   -1.4295 H   0  0  0  0  0  0  0  0  0  0  0  0
    2.8398   -1.0873   -2.3681 H   0  0  0  0  0  0  0  0  0  0  0  0
    2.6793    1.3522   -0.5294 H   0  0  0  0  0  0  0  0  0  0  0  0
    4.1389    0.8405   -1.3834 H   0  0  0  0  0  0  0  0  0  0  0  0
    2.8919    1.0477   -3.5661 H   0  0  0  0  0  0  0  0  0  0  0  0
    1.4830    1.6320   -2.7000 H   0  0  0  0  0  0  0  0  0  0  0  0
    4.2400    2.9561   -2.8569 H   0  0  0  0  0  0  0  0  0  0  0  0
    2.7912    3.4697   -3.7042 H   0  0  0  0  0  0  0  0  0  0  0  0
    3.2608    3.5856   -0.6805 H   0  0  0  0  0  0  0  0  0  0  0  0
    3.2821    4.9278   -1.8092 H   0  0  0  0  0  0  0  0  0  0  0  0
    0.8305    3.2174   -1.1348 H   0  0  0  0  0  0  0  0  0  0  0  0
    0.8542    4.4993   -2.3493 H   0  0  0  0  0  0  0  0  0  0  0  0
    1.4985    6.1521   -0.5795 H   0  0  0  0  0  0  0  0  0  0  0  0
    1.4897    4.8644    0.6279 H   0  0  0  0  0  0  0  0  0  0  0  0
   -0.9377    4.4453    0.1624 H   0  0  0  0  0  0  0  0  0  0  0  0
   -0.9285    5.7322   -1.0452 H   0  0  0  0  0  0  0  0  0  0  0  0
   -0.2845    7.3888    0.7251 H   0  0  0  0  0  0  0  0  0  0  0  0
   -0.2933    6.1016    1.9327 H   0  0  0  0  0  0  0  0  0  0  0  0
   -2.7161    6.9961    0.2818 H   0  0  0  0  0  0  0  0  0  0  0  0
   -2.4122    7.3759    1.9857 H   0  0  0  0  0  0  0  0  0  0  0  0
   -2.7249    5.7018    1.4961 H   0  0  0  0  0  0  0  0  0  0  0  0
  1  2  1  0
  2  3  1  0
  3  4  1  0
  4  5  1  0
  5  6  1  0
  6  7  1  0
  7  8  1  0
  8  9  1  0
  9 10  1  0
 10 11  1  0
 11 12  1  0
 12 13  1  0
 13 14  1  0
 14 15  1  0
 15 16  1  0
 16 17  1  0
 17 18  1  0
 18 19  1  0
 19 20  1  0
 20 21  1  0
 21 22  1  0
 22 23  1  0
  1 24  1  0
  1 25  1  0
  1 26  1  0
  2 27  1  0
  2 28  1  0
  3 29  1  0
  3 30  1  0
  4 31  1  0
  4 32  1  0
  5 33  1  0
  5 34  1  0
  6 35  1  0
  6 36  1  0
  7 37  1  0
  7 38  1  0
  8 39  1  0
  8 40  1  0
  9 41  1  0
  9 42  1  0
 10 43  1  0
 10 44  1  0
 11 45  1  0
 11 46  1  0
 12 47  1  0
 12 48  1  0
 13 49  1  0
 13 50  1  0
 14 51  1  0
 14 52  1  0
 15 53  1  0
 15 54  1  0
 16 55  1  0
 16 56  1  0
 17 57  1  0
 17 58  1  0
 18 59  1  0
 18 60  1  0
 19 61  1  0
 19 62  1  0
 20 63  1  0
 20 64  1  0
 21 65  1  0
 21 66  1  0
 22 67  1  0
 22 68  1  0
 23 69  1  0
 23 70  1  0
 23 71  1  0
M  END
$$$$
n-alkane C24H50
     RDKit          3D

 74 73  0  0  0  0  0  0  0  0999 V2000
   -1.4763   -3.1511    3.8636 C   0  0  0  0  0  0  0  0  0  0  0  0
   -0.5699   -2.1428    4.5518 C   0  0  0  0  0  0  0  0  0  0  0  0
    0.9109   -2.5302    4.5220 C   0  0  0  0  0  0  0  0  0  0  0  0
    1.5286   -2.6882    3.1279 C   0  0  0  0  0  0  0  0  0  0  0  0
    1.4525   -1.4116    2.2876 C   0  0  0  0  0  0  0  0  0  0  0  0
    2.2426   -1.4963    0.9784 C   0  0  0  0  0  0  0  0  0  0  0  0
    1.6598   -2.5037   -0.0168 C   0  0  0  0  0  0  0  0  0  0  0  0
    2.4388   -2.4858   -1.3342 C   0  0  0  0  0  0  0  0  0  0  0  0
    1.9549   -3.5276   -2.3468 C   0  0  0  0  0  0  0  0  0  0  0  0
    0.4935   -3.4019   -2.7896 C   0  0  0  0  0  0  0  0  0  0  0  0
    0.0815   -2.0405   -3.3603 C   0  0  0  0  0  0  0  0  0  0  0  0
    0.8796   -1.6343   -4.6040 C   0  0  0  0  0  0  0  0  0  0  0  0
    0.3696   -0.3399   -5.2511 C   0  0  0  0  0  0  0  0  0  0  0  0
    1.1090    0.9337   -4.8230 C   0  0  0  0  0  0  0  0  0  0  0  0
    0.9791    1.2619   -3.3369 C   0  0  0  0  0  0  0  0  0  0  0  0
    1.5796    2.6310   -3.0055 C   0  0  0  0  0  0  0  0  0  0  0  0
    1.6341    2.9098   -1.4999 C   0  0  0  0  0  0  0  0  0  0  0  0
    0.2517    3.0496   -0.8570 C   0  0  0  0  0  0  0  0  0  0  0  0
    0.3670    3.3019    0.6480 C   0  0  0  0  0  0  0  0  0  0  0  0
   -0.9805    3.5448    1.3354 C   0  0  0  0  0  0  0  0  0  0  0  0
   -2.0360    2.4463    1.1636 C   0  0  0  0  0  0  0  0  0  0  0  0
   -1.5629    1.0657    1.6237 C   0  0  0  0  0  0  0  0  0  0  0  0
   -2.6360   -0.0165    1.4828 C   0  0  0  0  0  0  0  0  0  0  0  0
   -3.7794    0.1338    2.4737 C   0  0  0  0  0  0  0  0  0  0  0  0
   -1.3422   -4.1520    4.2856 H   0  0  0  0  0  0  0  0  0  0  0  0
   -1.2801   -3.1993    2.7885 H   0  0  0  0  0  0  0  0  0  0  0  0
   -2.5247   -2.8650    3.9961 H   0  0  0  0  0  0  0  0  0  0  0  0
   -0.8810   -2.0542    5.5999 H   0  0  0  0  0  0  0  0  0  0  0  0
   -0.7150   -1.1538    4.1042 H   0  0  0  0  0  0  0  0  0  0  0  0
    1.4782   -1.7730    5.0776 H   0  0  0  0  0  0  0  0  0  0  0  0
    1.0420   -3.4733    5.0671 H   0  0  0  0  0  0  0  0  0  0  0  0
    2.5804   -2.9740    3.2530 H   0  0  0  0  0  0  0  0  0  0  0  0
    1.0425   -3.5181    2.6045 H   0  0  0  0  0  0  0  0  0  0  0  0
    0.4083   -1.1779    2.0585 H   0  0  0  0  0  0  0  0  0  0  0  0
    1.8474   -0.5721    2.8729 H   0  0  0  0  0  0  0  0  0  0  0  0
    3.2880   -1.7475    1.1947 H   0  0  0  0  0  0  0  0  0  0  0  0
    2.2454   -0.5009    0.5164 H   0  0  0  0  0  0  0  0  0  0  0  0
    1.6940   -3.5141    0.4050 H   0  0  0  0  0  0  0  0  0  0  0  0
    0.6072   -2.2592   -0.1974 H   0  0  0  0  0  0  0  0  0  0  0  0
    2.3986   -1.4853   -1.7773 H   0  0  0  0  0  0  0  0  0  0  0  0
    3.4975   -2.6844   -1.1244 H   0  0  0  0  0  0  0  0  0  0  0  0
    2.6049   -3.4836   -3.2288 H   0  0  0  0  0  0  0  0  0  0  0  0
    2.0985   -4.5283   -1.9199 H   0  0  0  0  0  0  0  0  0  0  0  0
   -0.1627   -3.6370   -1.9429 H   0  0  0  0  0  0  0  0  0  0  0  0
    0.2963   -4.1751   -3.5431 H   0  0  0  0  0  0  0  0  0  0  0  0
   -0.9822   -2.0973   -3.6249 H   0  0  0  0  0  0  0  0  0  0  0  0
    0.1576   -1.2787   -2.5802 H   0  0  0  0  0  0  0  0  0  0  0  0
    0.7847   -2.4416   -5.3416 H   0  0  0  0  0  0  0  0  0  0  0  0
    1.9467   -1.5430   -4.3750 H   0  0  0  0  0  0  0  0  0  0  0  0
    0.5026   -0.4343   -6.3367 H   0  0  0  0  0  0  0  0  0  0  0  0
   -0.7077   -0.2215   -5.0850 H   0  0  0  0  0  0  0  0  0  0  0  0
    0.7112    1.7697   -5.4120 H   0  0  0  0  0  0  0  0  0  0  0  0
    2.1701    0.8436   -5.0864 H   0  0  0  0  0  0  0  0  0  0  0  0
    1.4994    0.5011   -2.7474 H   0  0  0  0  0  0  0  0  0  0  0  0
   -0.0790    1.2389   -3.0553 H   0  0  0  0  0  0  0  0  0  0  0  0
    1.0086    3.4202   -3.5091 H   0  0  0  0  0  0  0  0  0  0  0  0
    2.6027    2.6786   -3.3987 H   0  0  0  0  0  0  0  0  0  0  0  0
    2.1971    3.8377   -1.3405 H   0  0  0  0  0  0  0  0  0  0  0  0
    2.1963    2.1103   -1.0016 H   0  0  0  0  0  0  0  0  0  0  0  0
   -0.2919    3.8753   -1.3310 H   0  0  0  0  0  0  0  0  0  0  0  0
   -0.3268    2.1370   -1.0276 H   0  0  0  0  0  0  0  0  0  0  0  0
    0.8808    2.4593    1.1258 H   0  0  0  0  0  0  0  0  0  0  0  0
    0.9994    4.1821    0.8192 H   0  0  0  0  0  0  0  0  0  0  0  0
   -1.4020    4.4869    0.9628 H   0  0  0  0  0  0  0  0  0  0  0  0
   -0.7973    3.6938    2.4070 H   0  0  0  0  0  0  0  0  0  0  0  0
   -2.9203    2.7452    1.7379 H   0  0  0  0  0  0  0  0  0  0  0  0
   -2.3535    2.3972    0.1154 H   0  0  0  0  0  0  0  0  0  0  0  0
   -0.7038    0.7577    1.0176 H   0  0  0  0  0  0  0  0  0  0  0  0
   -1.2185    1.1148    2.6635 H   0  0  0  0  0  0  0  0  0  0  0  0
   -3.0325   -0.0220    0.4609 H   0  0  0  0  0  0  0  0  0  0  0  0
   -2.1667   -0.9939    1.6437 H   0  0  0  0  0  0  0  0  0  0  0  0
   -4.4664   -0.7140    2.3850 H   0  0  0  0  0  0  0  0  0  0  0  0
   -4.3538    1.0463    2.2905 H   0  0  0  0  0  0  0  0  0  0  0  0
   -3.4063    0.1595    3.5025 H   0  0  0  0  0  0  0  0  0  0  0  0
  1  2  1  0
  2  3  1  0
  3  4  1  0
  4  5  1  0
  5  6  1  0
  6  7  1  0
  7  8  1  0
  8  9  1  0
  9 10  1  0
 10 11  1  0
 11 12  1  0
 12 13  1  0
 13 14  1  0
 14 15  1  0
 15 16  1  0
 16 17  1  0
 17 18  1  0
 18 19  1  0
 19 20  1  0
 20 21  1  0
 21 22  1  0
 22 23  1  0
 23 24  1  0
  1 25  1  0
  1 26  1  0
  1 27  1  0
  2 28  1  0
  2 29  1  0
  3 30  1  0
  3 31  1  0
  4 32  1  0
  4 33  1  0
  5 34  1  0
  5 35  1  0
  6 36  1  0
  6 37  1  0
  7 38  1  0
  7 39  1  0
  8 40  1  0
  8 41  1  0
  9 42  1  0
  9 43  1  0
 10 44  1  0
 10 45  1  0
 11 46  1  0
 11 47  1  0
 12 48  1  0
 12 49  1  0
 13 50  1  0
 13 51  1  0
 14 52  1  0
 14 53  1  0
 15 54  1  0
 15 55  1  0
 16 56  1  0
 16 57  1  0
 17 58  1  0
 17 59  1  0
 18 60  1  0
 18 61  1  0
 19 62  1  0
 19 63  1  0
 20 64  1  0
 20 65  1  0
 21 66  1  0
 21 67  1  0
 22 68  1  0
 22 69  1  0
 23 70  1  0
 23 71  1  0
 24 72  1  0
 24 73  1  0
 24 74  1  0
M  END
$$$$
n-alkane C25H52
     RDKit          3D

 77 76  0  0  0  0  0  0  0  0999 V2000
   -4.7007    1.1915    0.6436 C   0  0  0  0  0  0  0  0  0  0  0  0
   -4.2461    0.6095   -0.6853 C   0  0  0  0  0  0  0  0  0  0  0  0
   -2.9163   -0.1303   -0.5480 C   0  0  0  0  0  0  0  0  0  0  0  0
   -2.4778   -0.7418   -1.8795 C   0  0  0  0  0  0  0  0  0  0  0  0
   -1.1412   -1.4722   -1.7362 C   0  0  0  0  0  0  0  0  0  0  0  0
   -0.7027   -2.1065   -3.0596 C   0  0  0  0  0  0  0  0  0  0  0  0
    0.5172   -3.0196   -2.9037 C   0  0  0  0  0  0  0  0  0  0  0  0
    1.8093   -2.2622   -2.5851 C   0  0  0  0  0  0  0  0  0  0  0  0
    3.0166   -3.1859   -2.3742 C   0  0  0  0  0  0  0  0  0  0  0  0
    2.8751   -4.2185   -1.2463 C   0  0  0  0  0  0  0  0  0  0  0  0
    2.4960   -3.6394    0.1201 C   0  0  0  0  0  0  0  0  0  0  0  0
    3.6480   -2.8948    0.7995 C   0  0  0  0  0  0  0  0  0  0  0  0
    3.1977   -1.9591    1.9275 C   0  0  0  0  0  0  0  0  0  0  0  0
    2.2537   -2.6070    2.9435 C   0  0  0  0  0  0  0  0  0  0  0  0
    1.9558   -1.7237    4.1605 C   0  0  0  0  0  0  0  0  0  0  0  0
    1.4611   -0.3050    3.8575 C   0  0  0  0  0  0  0  0  0  0  0  0
    0.2126   -0.2568    2.9723 C   0  0  0  0  0  0  0  0  0  0  0  0
   -0.3624    1.1551    2.7969 C   0  0  0  0  0  0  0  0  0  0  0  0
    0.6480    2.1596    2.2340 C   0  0  0  0  0  0  0  0  0  0  0  0
    0.0251    3.5163    1.8904 C   0  0  0  0  0  0  0  0  0  0  0  0
   -0.8653    3.5337    0.6434 C   0  0  0  0  0  0  0  0  0  0  0  0
   -0.0968    3.2416   -0.6490 C   0  0  0  0  0  0  0  0  0  0  0  0
   -0.9855    3.4209   -1.8825 C   0  0  0  0  0  0  0  0  0  0  0  0
   -0.2127    3.3289   -3.2007 C   0  0  0  0  0  0  0  0  0  0  0  0
    0.4089    1.9645   -3.4528 C   0  0  0  0  0  0  0  0  0  0  0  0
   -4.8389    0.4030    1.3903 H   0  0  0  0  0  0  0  0  0  0  0  0
   -5.6544    1.7144    0.5216 H   0  0  0  0  0  0  0  0  0  0  0  0
   -3.9691    1.9067    1.0314 H   0  0  0  0  0  0  0  0  0  0  0  0
   -5.0165   -0.0753   -1.0587 H   0  0  0  0  0  0  0  0  0  0  0  0
   -4.1483    1.4185   -1.4185 H   0  0  0  0  0  0  0  0  0  0  0  0
   -2.1450    0.5620   -0.1920 H   0  0  0  0  0  0  0  0  0  0  0  0
   -3.0115   -0.9215    0.2056 H   0  0  0  0  0  0  0  0  0  0  0  0
   -2.3905    0.0452   -2.6375 H   0  0  0  0  0  0  0  0  0  0  0  0
   -3.2448   -1.4433   -2.2295 H   0  0  0  0  0  0  0  0  0  0  0  0
   -1.2346   -2.2503   -0.9688 H   0  0  0  0  0  0  0  0  0  0  0  0
   -0.3802   -0.7646   -1.3882 H   0  0  0  0  0  0  0  0  0  0  0  0
   -0.4955   -1.3264   -3.8012 H   0  0  0  0  0  0  0  0  0  0  0  0
   -1.5284   -2.7099   -3.4568 H   0  0  0  0  0  0  0  0  0  0  0  0
    0.2989   -3.7595   -2.1263 H   0  0  0  0  0  0  0  0  0  0  0  0
    0.6580   -3.5765   -3.8382 H   0  0  0  0  0  0  0  0  0  0  0  0
    2.0356   -1.5836   -3.4173 H   0  0  0  0  0  0  0  0  0  0  0  0
    1.6820   -1.6253   -1.7043 H   0  0  0  0  0  0  0  0  0  0  0  0
    3.2183   -3.7242   -3.3089 H   0  0  0  0  0  0  0  0  0  0  0  0
    3.8996   -2.5634   -2.1883 H   0  0  0  0  0  0  0  0  0  0  0  0
    2.1172   -4.9568   -1.5340 H   0  0  0  0  0  0  0  0  0  0  0  0
    3.8158   -4.7761   -1.1579 H   0  0  0  0  0  0  0  0  0  0  0  0
    2.1941   -4.4724    0.7678 H   0  0  0  0  0  0  0  0  0  0  0  0
    1.6175   -2.9927    0.0294 H   0  0  0  0  0  0  0  0  0  0  0  0
    4.3582   -3.6292    1.1993 H   0  0  0  0  0  0  0  0  0  0  0  0
    4.2018   -2.2927    0.0707 H   0  0  0  0  0  0  0  0  0  0  0  0
    2.7093   -1.0907    1.4708 H   0  0  0  0  0  0  0  0  0  0  0  0
    4.0900   -1.5822    2.4420 H   0  0  0  0  0  0  0  0  0  0  0  0
    1.3065   -2.8716    2.4601 H   0  0  0  0  0  0  0  0  0  0  0  0
    2.6935   -3.5465    3.3003 H   0  0  0  0  0  0  0  0  0  0  0  0
    2.8654   -1.6454    4.7693 H   0  0  0  0  0  0  0  0  0  0  0  0
    1.2126   -2.2350    4.7850 H   0  0  0  0  0  0  0  0  0  0  0  0
    2.2762    0.2599    3.3920 H   0  0  0  0  0  0  0  0  0  0  0  0
    1.2453    0.1930    4.8110 H   0  0  0  0  0  0  0  0  0  0  0  0
    0.4362   -0.6651    1.9803 H   0  0  0  0  0  0  0  0  0  0  0  0
   -0.5657   -0.8958    3.4071 H   0  0  0  0  0  0  0  0  0  0  0  0
   -0.7327    1.5183    3.7634 H   0  0  0  0  0  0  0  0  0  0  0  0
   -1.2320    1.0820    2.1352 H   0  0  0  0  0  0  0  0  0  0  0  0
    1.4217    2.3403    2.9900 H   0  0  0  0  0  0  0  0  0  0  0  0
    1.1595    1.7370    1.3632 H   0  0  0  0  0  0  0  0  0  0  0  0
    0.8347    4.2436    1.7497 H   0  0  0  0  0  0  0  0  0  0  0  0
   -0.5604    3.8704    2.7479 H   0  0  0  0  0  0  0  0  0  0  0  0
   -1.3184    4.5303    0.5695 H   0  0  0  0  0  0  0  0  0  0  0  0
   -1.6924    2.8261    0.7541 H   0  0  0  0  0  0  0  0  0  0  0  0
    0.2858    2.2163   -0.6258 H   0  0  0  0  0  0  0  0  0  0  0  0
    0.7667    3.9138   -0.7195 H   0  0  0  0  0  0  0  0  0  0  0  0
   -1.7882    2.6743   -1.8714 H   0  0  0  0  0  0  0  0  0  0  0  0
   -1.4687    4.4049   -1.8407 H   0  0  0  0  0  0  0  0  0  0  0  0
    0.5716    4.0946   -3.2247 H   0  0  0  0  0  0  0  0  0  0  0  0
   -0.9011    3.5561   -4.0235 H   0  0  0  0  0  0  0  0  0  0  0  0
   -0.3508    1.1792   -3.4262 H   0  0  0  0  0  0  0  0  0  0  0  0
    1.1791    1.7282   -2.7130 H   0  0  0  0  0  0  0  0  0  0  0  0
    0.8809    1.9435   -4.4404 H   0  0  0  0  0  0  0  0  0  0  0  0
  1  2  1  0
  2  3  1  0
  3  4  1  0
  4  5  1  0
  5  6  1  0
  6  7  1  0
  7  8  1  0
  8  9  1  0
  9 10  1  0
 10 11  1  0
 11 12  1  0
 12 13  1  0
 13 14  1  0
 14 15  1  0
 15 16  1  0
 16 17  1  0
 17 18  1  0
 18 19  1  0
 19 20  1  0
 20 21  1  0
 21 22  1  0
 22 23  1  0
 23 24  1  0
 24 25  1  0
  1 26  1  0
  1 27  1  0
  1 28  1  0
  2 29  1  0
  2 30  1  0
  3 31  1  0
  3 32  1  0
  4 33  1  0
  4 34  1  0
  5 35  1  0
  5 36  1  0
  6 37  1  0
  6 38  1  0
  7 39  1  0
  7 40  1  0
  8 41  1  0
  8 42  1  0
  9 43  1  0
  9 44  1  0
 10 45  1  0
 10 46  1  0
 11 47  1  0
 11 48  1  0
 12 49  1  0
 12 50  1  0
 13 51  1  0
 13 52  1  0
 14 53  1  0
 14 54  1  0
 15 55  1  0
 15 56  1  0
 16 57  1  0
 16 58  1  0
 17 59  1  0
 17 60  1  0
 18 61  1  0
 18 62  1  0
 19 63  1  0
 19 64  1  0
 20 65  1  0
 20 66  1  0
 21 67  1  0
 21 68  1  0
 22 69  1  0
 22 70  1  0
 23 71  1  0
 23 72  1  0
 24 73  1  0
 24 74  1  0
 25 75  1  0
 25 76  1  0
 25 77  1  0
M  END
$$$$
n-alkane C26H54
     RDKit          3D

 80 79  0  0  0  0  0  0  0  0999 V2000
   -4.2968   -4.3115    1.3852 C   0  0  0  0  0  0  0  0  0  0  0  0
   -2.8664   -4.2015    1.8910 C   0  0  0  0  0  0  0  0  0  0  0  0
   -2.3507   -2.7654    1.7935 C   0  0  0  0  0  0  0  0  0  0  0  0
   -0.9527   -2.5804    2.3904 C   0  0  0  0  0  0  0  0  0  0  0  0
    0.1461   -3.2957    1.5996 C   0  0  0  0  0  0  0  0  0  0  0  0
    1.5273   -3.0142    2.1976 C   0  0  0  0  0  0  0  0  0  0  0  0
    2.6531   -3.8153    1.5350 C   0  0  0  0  0  0  0  0  0  0  0  0
    2.8600   -3.5593    0.0383 C   0  0  0  0  0  0  0  0  0  0  0  0
    3.2265   -2.1078   -0.2784 C   0  0  0  0  0  0  0  0  0  0  0  0
    3.6203   -1.8823   -1.7431 C   0  0  0  0  0  0  0  0  0  0  0  0
    2.4650   -2.1266   -2.7163 C   0  0  0  0  0  0  0  0  0  0  0  0
    2.7908   -1.7624   -4.1687 C   0  0  0  0  0  0  0  0  0  0  0  0
    3.1677   -0.2991   -4.4288 C   0  0  0  0  0  0  0  0  0  0  0  0
    2.1948    0.7486   -3.8783 C   0  0  0  0  0  0  0  0  0  0  0  0
    0.7848    0.6401   -4.4634 C   0  0  0  0  0  0  0  0  0  0  0  0
   -0.1561    1.7555   -3.9902 C   0  0  0  0  0  0  0  0  0  0  0  0
   -0.3514    1.8673   -2.4731 C   0  0  0  0  0  0  0  0  0  0  0  0
   -0.9662    0.6155   -1.8424 C   0  0  0  0  0  0  0  0  0  0  0  0
   -1.0199    0.6742   -0.3126 C   0  0  0  0  0  0  0  0  0  0  0  0
   -1.9630    1.7524    0.2233 C   0  0  0  0  0  0  0  0  0  0  0  0
   -2.1558    1.6808    1.7418 C   0  0  0  0  0  0  0  0  0  0  0  0
   -0.8845    1.8515    2.5803 C   0  0  0  0  0  0  0  0  0  0  0  0
   -0.0875    3.1345    2.3268 C   0  0  0  0  0  0  0  0  0  0  0  0
   -0.8825    4.4104    2.6109 C   0  0  0  0  0  0  0  0  0  0  0  0
   -0.0098    5.6548    2.4419 C   0  0  0  0  0  0  0  0  0  0  0  0
   -0.7945    6.9272    2.7189 C   0  0  0  0  0  0  0  0  0  0  0  0
   -4.3667   -4.0036    0.3370 H   0  0  0  0  0  0  0  0  0  0  0  0
   -4.9712   -3.6819    1.9745 H   0  0  0  0  0  0  0  0  0  0  0  0
   -4.6466   -5.3459    1.4598 H   0  0  0  0  0  0  0  0  0  0  0  0
   -2.2346   -4.8746    1.3019 H   0  0  0  0  0  0  0  0  0  0  0  0
   -2.8263   -4.5427    2.9318 H   0  0  0  0  0  0  0  0  0  0  0  0
   -2.3515   -2.4434    0.7454 H   0  0  0  0  0  0  0  0  0  0  0  0
   -3.0407   -2.1007    2.3282 H   0  0  0  0  0  0  0  0  0  0  0  0
   -0.9492   -2.9275    3.4308 H   0  0  0  0  0  0  0  0  0  0  0  0
   -0.7302   -1.5069    2.4158 H   0  0  0  0  0  0  0  0  0  0  0  0
    0.1132   -2.9598    0.5571 H   0  0  0  0  0  0  0  0  0  0  0  0
   -0.0313   -4.3766    1.6029 H   0  0  0  0  0  0  0  0  0  0  0  0
    1.7447   -1.9413    2.1448 H   0  0  0  0  0  0  0  0  0  0  0  0
    1.5136   -3.2722    3.2642 H   0  0  0  0  0  0  0  0  0  0  0  0
    3.5896   -3.6000    2.0645 H   0  0  0  0  0  0  0  0  0  0  0  0
    2.4583   -4.8854    1.6794 H   0  0  0  0  0  0  0  0  0  0  0  0
    3.6673   -4.2156   -0.3101 H   0  0  0  0  0  0  0  0  0  0  0  0
    1.9612   -3.8559   -0.5120 H   0  0  0  0  0  0  0  0  0  0  0  0
    4.0709   -1.8055    0.3531 H   0  0  0  0  0  0  0  0  0  0  0  0
    2.3904   -1.4441   -0.0295 H   0  0  0  0  0  0  0  0  0  0  0  0
    3.9715   -0.8485   -1.8316 H   0  0  0  0  0  0  0  0  0  0  0  0
    4.4672   -2.5279   -2.0048 H   0  0  0  0  0  0  0  0  0  0  0  0
    2.1919   -3.1882   -2.6953 H   0  0  0  0  0  0  0  0  0  0  0  0
    1.5785   -1.5769   -2.3846 H   0  0  0  0  0  0  0  0  0  0  0  0
    3.6146   -2.3975   -4.5182 H   0  0  0  0  0  0  0  0  0  0  0  0
    1.9262   -2.0237   -4.7911 H   0  0  0  0  0  0  0  0  0  0  0  0
    3.2700   -0.1568   -5.5121 H   0  0  0  0  0  0  0  0  0  0  0  0
    4.1613   -0.1039   -4.0078 H   0  0  0  0  0  0  0  0  0  0  0  0
    2.5985    1.7430   -4.1066 H   0  0  0  0  0  0  0  0  0  0  0  0
    2.1631    0.6727   -2.7868 H   0  0  0  0  0  0  0  0  0  0  0  0
    0.3448   -0.3339   -4.2272 H   0  0  0  0  0  0  0  0  0  0  0  0
    0.8481    0.6889   -5.5578 H   0  0  0  0  0  0  0  0  0  0  0  0
   -1.1342    1.6097   -4.4652 H   0  0  0  0  0  0  0  0  0  0  0  0
    0.2250    2.7160   -4.3591 H   0  0  0  0  0  0  0  0  0  0  0  0
    0.6031    2.1023   -1.9890 H   0  0  0  0  0  0  0  0  0  0  0  0
   -1.0080    2.7253   -2.2859 H   0  0  0  0  0  0  0  0  0  0  0  0
   -0.3766   -0.2661   -2.1115 H   0  0  0  0  0  0  0  0  0  0  0  0
   -1.9737    0.4555   -2.2446 H   0  0  0  0  0  0  0  0  0  0  0  0
   -0.0061    0.8277    0.0745 H   0  0  0  0  0  0  0  0  0  0  0  0
   -1.3524   -0.3039    0.0528 H   0  0  0  0  0  0  0  0  0  0  0  0
   -2.9459    1.6357   -0.2499 H   0  0  0  0  0  0  0  0  0  0  0  0
   -1.6021    2.7479   -0.0551 H   0  0  0  0  0  0  0  0  0  0  0  0
   -2.8903    2.4396    2.0368 H   0  0  0  0  0  0  0  0  0  0  0  0
   -2.6073    0.7133    1.9961 H   0  0  0  0  0  0  0  0  0  0  0  0
   -0.2224    0.9935    2.4150 H   0  0  0  0  0  0  0  0  0  0  0  0
   -1.1651    1.8127    3.6405 H   0  0  0  0  0  0  0  0  0  0  0  0
    0.2849    3.1495    1.2961 H   0  0  0  0  0  0  0  0  0  0  0  0
    0.7994    3.1147    2.9728 H   0  0  0  0  0  0  0  0  0  0  0  0
   -1.2796    4.3763    3.6326 H   0  0  0  0  0  0  0  0  0  0  0  0
   -1.7391    4.4794    1.9312 H   0  0  0  0  0  0  0  0  0  0  0  0
    0.3895    5.6933    1.4217 H   0  0  0  0  0  0  0  0  0  0  0  0
    0.8466    5.6052    3.1243 H   0  0  0  0  0  0  0  0  0  0  0  0
   -1.6402    7.0244    2.0306 H   0  0  0  0  0  0  0  0  0  0  0  0
   -0.1515    7.8040    2.5928 H   0  0  0  0  0  0  0  0  0  0  0  0
   -1.1817    6.9342    3.7428 H   0  0  0  0  0  0  0  0  0  0  0  0
  1  2  1  0
  2  3  1  0
  3  4  1  0
  4  5  1  0
  5  6  1  0
  6  7  1  0
  7  8  1  0
  8  9  1  0
  9 10  1  0
 10 11  1  0
 11 12  1  0
 12 13  1  0
 13 14  1  0
 14 15  1  0
 15 16  1  0
 16 17  1  0
 17 18  1  0
 18 19  1  0
 19 20  1  0
 20 21  1  0
 21 22  1  0
 22 23  1  0
 23 24  1  0
 24 25  1  0
 25 26  1  0
  1 27  1  0
  1 28  1  0
  1 29  1  0
  2 30  1  0
  2 31  1  0
  3 32  1  0
  3 33  1  0
  4 34  1  0
  4 35  1  0
  5 36  1  0
  5 37  1  0
  6 38  1  0
  6 39  1  0
  7 40  1  0
  7 41  1  0
  8 42  1  0
  8 43  1  0
  9 44  1  0
  9 45  1  0
 10 46  1  0
 10 47  1  0
 11 48  1  0
 11 49  1  0
 12 50  1  0
 12 51  1  0
 13 52  1  0
 13 53  1  0
 14 54  1  0
 14 55  1  0
 15 56  1  0
 15 57  1  0
 16 58  1  0
 16 59  1  0
 17 60  1  0
 17 61  1  0
 18 62  1  0
 18 63  1  0
 19 64  1  0
 19 65  1  0
 20 66  1  0
 20 67  1  0
 21 68  1  0
 21 69  1  0
 22 70  1  0
 22 71  1  0
 23 72  1  0
 23 73  1  0
 24 74  1  0
 24 75  1  0
 25 76  1  0
 25 77  1  0
 26 78  1  0
 26 79  1  0
 26 80  1  0
M  END
$$$$
n-alkane C27H56
     RDKit          3D

 83 82  0  0  0  0  0  0  0  0999 V2000
    0.2651   -4.8955    5.2791 C   0  0  0  0  0  0  0  0  0  0  0  0
   -0.4973   -6.2112    5.2841 C   0  0  0  0  0  0  0  0  0  0  0  0
   -0.0101   -7.2052    4.2270 C   0  0  0  0  0  0  0  0  0  0  0  0
   -0.0998   -6.7259    2.7741 C   0  0  0  0  0  0  0  0  0  0  0  0
   -1.5269   -6.3881    2.3357 C   0  0  0  0  0  0  0  0  0  0  0  0
   -1.6477   -6.1104    0.8330 C   0  0  0  0  0  0  0  0  0  0  0  0
   -0.8819   -4.8619    0.3875 C   0  0  0  0  0  0  0  0  0  0  0  0
   -1.1766   -4.4527   -1.0598 C   0  0  0  0  0  0  0  0  0  0  0  0
   -0.7217   -5.4938   -2.0878 C   0  0  0  0  0  0  0  0  0  0  0  0
   -0.8803   -5.0096   -3.5340 C   0  0  0  0  0  0  0  0  0  0  0  0
    0.4043   -4.4642   -4.1684 C   0  0  0  0  0  0  0  0  0  0  0  0
    0.9570   -3.2112   -3.4885 C   0  0  0  0  0  0  0  0  0  0  0  0
    2.1458   -2.6391   -4.2657 C   0  0  0  0  0  0  0  0  0  0  0  0
    2.8236   -1.4610   -3.5598 C   0  0  0  0  0  0  0  0  0  0  0  0
    1.9273   -0.2268   -3.4377 C   0  0  0  0  0  0  0  0  0  0  0  0
    2.6897    0.9533   -2.8307 C   0  0  0  0  0  0  0  0  0  0  0  0
    1.7937    2.1875   -2.7018 C   0  0  0  0  0  0  0  0  0  0  0  0
    2.5572    3.3645   -2.0905 C   0  0  0  0  0  0  0  0  0  0  0  0
    1.7421    4.6600   -2.0424 C   0  0  0  0  0  0  0  0  0  0  0  0
    0.5371    4.5862   -1.1020 C   0  0  0  0  0  0  0  0  0  0  0  0
   -0.1719    5.9398   -1.0028 C   0  0  0  0  0  0  0  0  0  0  0  0
   -1.3770    5.8659   -0.0628 C   0  0  0  0  0  0  0  0  0  0  0  0
   -2.1851    7.1656   -0.0063 C   0  0  0  0  0  0  0  0  0  0  0  0
   -1.4231    8.4025    0.4805 C   0  0  0  0  0  0  0  0  0  0  0  0
   -0.7582    8.2760    1.8544 C   0  0  0  0  0  0  0  0  0  0  0  0
   -1.7489    7.9961    2.9848 C   0  0  0  0  0  0  0  0  0  0  0  0
   -1.0560    7.9845    4.3388 C   0  0  0  0  0  0  0  0  0  0  0  0
    1.3419   -5.0647    5.3778 H   0  0  0  0  0  0  0  0  0  0  0  0
   -0.0581   -4.2712    6.1183 H   0  0  0  0  0  0  0  0  0  0  0  0
    0.0852   -4.3314    4.3591 H   0  0  0  0  0  0  0  0  0  0  0  0
   -0.3830   -6.6759    6.2710 H   0  0  0  0  0  0  0  0  0  0  0  0
   -1.5676   -6.0147    5.1588 H   0  0  0  0  0  0  0  0  0  0  0  0
   -0.5862   -8.1331    4.3314 H   0  0  0  0  0  0  0  0  0  0  0  0
    1.0340   -7.4664    4.4406 H   0  0  0  0  0  0  0  0  0  0  0  0
    0.5564   -5.8606    2.6330 H   0  0  0  0  0  0  0  0  0  0  0  0
    0.2944   -7.5217    2.1298 H   0  0  0  0  0  0  0  0  0  0  0  0
   -2.1870   -7.2288    2.5825 H   0  0  0  0  0  0  0  0  0  0  0  0
   -1.8978   -5.5191    2.8908 H   0  0  0  0  0  0  0  0  0  0  0  0
   -2.7106   -5.9851    0.5929 H   0  0  0  0  0  0  0  0  0  0  0  0
   -1.2970   -6.9875    0.2773 H   0  0  0  0  0  0  0  0  0  0  0  0
    0.1967   -5.0197    0.5008 H   0  0  0  0  0  0  0  0  0  0  0  0
   -1.1508   -4.0229    1.0411 H   0  0  0  0  0  0  0  0  0  0  0  0
   -2.2521   -4.2700   -1.1760 H   0  0  0  0  0  0  0  0  0  0  0  0
   -0.6787   -3.4960   -1.2471 H   0  0  0  0  0  0  0  0  0  0  0  0
    0.3133   -5.7997   -1.8956 H   0  0  0  0  0  0  0  0  0  0  0  0
   -1.3420   -6.3901   -1.9665 H   0  0  0  0  0  0  0  0  0  0  0  0
   -1.1975   -5.8662   -4.1429 H   0  0  0  0  0  0  0  0  0  0  0  0
   -1.6828   -4.2662   -3.6101 H   0  0  0  0  0  0  0  0  0  0  0  0
    0.1916   -4.2372   -5.2208 H   0  0  0  0  0  0  0  0  0  0  0  0
    1.1706   -5.2493   -4.1679 H   0  0  0  0  0  0  0  0  0  0  0  0
    0.1617   -2.4616   -3.4161 H   0  0  0  0  0  0  0  0  0  0  0  0
    1.2816   -3.4539   -2.4707 H   0  0  0  0  0  0  0  0  0  0  0  0
    2.8944   -3.4285   -4.4076 H   0  0  0  0  0  0  0  0  0  0  0  0
    1.8200   -2.3294   -5.2661 H   0  0  0  0  0  0  0  0  0  0  0  0
    3.7240   -1.1954   -4.1277 H   0  0  0  0  0  0  0  0  0  0  0  0
    3.1601   -1.7740   -2.5638 H   0  0  0  0  0  0  0  0  0  0  0  0
    1.5478    0.0519   -4.4281 H   0  0  0  0  0  0  0  0  0  0  0  0
    1.0597   -0.4534   -2.8080 H   0  0  0  0  0  0  0  0  0  0  0  0
    3.0733    0.6733   -1.8420 H   0  0  0  0  0  0  0  0  0  0  0  0
    3.5565    1.1926   -3.4586 H   0  0  0  0  0  0  0  0  0  0  0  0
    0.9279    1.9370   -2.0789 H   0  0  0  0  0  0  0  0  0  0  0  0
    1.4133    2.4695   -3.6909 H   0  0  0  0  0  0  0  0  0  0  0  0
    3.4606    3.5519   -2.6843 H   0  0  0  0  0  0  0  0  0  0  0  0
    2.8930    3.1035   -1.0795 H   0  0  0  0  0  0  0  0  0  0  0  0
    2.4060    5.4680   -1.7105 H   0  0  0  0  0  0  0  0  0  0  0  0
    1.4077    4.9220   -3.0535 H   0  0  0  0  0  0  0  0  0  0  0  0
   -0.1747    3.8351   -1.4621 H   0  0  0  0  0  0  0  0  0  0  0  0
    0.8671    4.2715   -0.1047 H   0  0  0  0  0  0  0  0  0  0  0  0
   -0.5021    6.2550   -2.0000 H   0  0  0  0  0  0  0  0  0  0  0  0
    0.5397    6.6911   -0.6426 H   0  0  0  0  0  0  0  0  0  0  0  0
   -2.0469    5.0659   -0.4029 H   0  0  0  0  0  0  0  0  0  0  0  0
   -1.0477    5.5826    0.9434 H   0  0  0  0  0  0  0  0  0  0  0  0
   -3.0611    7.0043    0.6332 H   0  0  0  0  0  0  0  0  0  0  0  0
   -2.5813    7.3790   -1.0073 H   0  0  0  0  0  0  0  0  0  0  0  0
   -0.6552    8.6687   -0.2556 H   0  0  0  0  0  0  0  0  0  0  0  0
   -2.1215    9.2488    0.5027 H   0  0  0  0  0  0  0  0  0  0  0  0
    0.0106    7.4953    1.8309 H   0  0  0  0  0  0  0  0  0  0  0  0
   -0.2334    9.2167    2.0642 H   0  0  0  0  0  0  0  0  0  0  0  0
   -2.2368    7.0274    2.8333 H   0  0  0  0  0  0  0  0  0  0  0  0
   -2.5345    8.7605    2.9897 H   0  0  0  0  0  0  0  0  0  0  0  0
   -0.5862    8.9508    4.5480 H   0  0  0  0  0  0  0  0  0  0  0  0
   -1.7804    7.7802    5.1335 H   0  0  0  0  0  0  0  0  0  0  0  0
   -0.2827    7.2105    4.3767 H   0  0  0  0  0  0  0  0  0  0  0  0
  1  2  1  0
  2  3  1  0
  3  4  1  0
  4  5  1  0
  5  6  1  0
  6  7  1  0
  7  8  1  0
  8  9  1  0
  9 10  1  0
 10 11  1  0
 11 12  1  0
 12 13  1  0
 13 14  1  0
 14 15  1  0
 15 16  1  0
 16 17  1  0
 17 18  1  0
 18 19  1  0
 19 20  1  0
 20 21  1  0
 21 22  1  0
 22 23  1  0
 23 24  1  0
 24 25  1  0
 25 26  1  0
 26 27  1  0
  1 28  1  0
  1 29  1  0
  1 30  1  0
  2 31  1  0
  2 32  1  0
  3 33  1  0
  3 34  1  0
  4 35  1  0
  4 36  1  0
  5 37  1  0
  5 38  1  0
  6 39  1  0
  6 40  1  0
  7 41  1  0
  7 42  1  0
  8 43  1  0
  8 44  1  0
  9 45  1  0
  9 46  1  0
 10 47  1  0
 10 48  1  0
 11 49  1  0
 11 50  1  0
 12 51  1  0
 12 52  1  0
 13 53  1  0
 13 54  1  0
 14 55  1  0
 14 56  1  0
 15 57  1  0
 15 58  1  0
 16 59  1  0
 16 60  1  0
 17 61  1  0
 17 62  1  0
 18 63  1  0
 18 64  1  0
 19 65  1  0
 19 66  1  0
 20 67  1  0
 20 68  1  0
 21 69  1  0
 21 70  1  0
 22 71  1  0
 22 72  1  0
 23 73  1  0
 23 74  1  0
 24 75  1  0
 24 76  1  0
 25 77  1  0
 25 78  1  0
 26 79  1  0
 26 80  1  0
 27 81  1  0
 27 82  1  0
 27 83  1  0
M  END
$$$$
n-alkane C28H58
     RDKit          3D

 86 85  0  0  0  0  0  0  0  0999 V2000
   -2.2319   -7.6507    2.7431 C   0  0  0  0  0  0  0  0  0  0  0  0
   -1.6363   -8.1874    4.0356 C   0  0  0  0  0  0  0  0  0  0  0  0
   -0.2953   -7.5482    4.4026 C   0  0  0  0  0  0  0  0  0  0  0  0
    0.8248   -7.8776    3.4122 C   0  0  0  0  0  0  0  0  0  0  0  0
    2.1615   -7.2939    3.8768 C   0  0  0  0  0  0  0  0  0  0  0  0
    3.3421   -7.6830    2.9817 C   0  0  0  0  0  0  0  0  0  0  0  0
    3.2357   -7.2618    1.5128 C   0  0  0  0  0  0  0  0  0  0  0  0
    3.0955   -5.7506    1.3203 C   0  0  0  0  0  0  0  0  0  0  0  0
    3.1059   -5.3780   -0.1640 C   0  0  0  0  0  0  0  0  0  0  0  0
    2.9558   -3.8676   -0.3592 C   0  0  0  0  0  0  0  0  0  0  0  0
    2.9582   -3.4979   -1.8436 C   0  0  0  0  0  0  0  0  0  0  0  0
    2.9292   -1.9876   -2.0978 C   0  0  0  0  0  0  0  0  0  0  0  0
    1.7368   -1.2271   -1.5064 C   0  0  0  0  0  0  0  0  0  0  0  0
    0.3861   -1.6921   -2.0507 C   0  0  0  0  0  0  0  0  0  0  0  0
   -0.8207   -0.9805   -1.4262 C   0  0  0  0  0  0  0  0  0  0  0  0
   -0.8880    0.5260   -1.6986 C   0  0  0  0  0  0  0  0  0  0  0  0
   -0.3662    1.3661   -0.5290 C   0  0  0  0  0  0  0  0  0  0  0  0
   -0.4316    2.8618   -0.8486 C   0  0  0  0  0  0  0  0  0  0  0  0
    0.0850    3.7015    0.3221 C   0  0  0  0  0  0  0  0  0  0  0  0
   -0.0627    5.2098    0.0982 C   0  0  0  0  0  0  0  0  0  0  0  0
    0.8079    5.7398   -1.0438 C   0  0  0  0  0  0  0  0  0  0  0  0
    0.8181    7.2695   -1.1384 C   0  0  0  0  0  0  0  0  0  0  0  0
   -0.5471    7.9301   -1.3591 C   0  0  0  0  0  0  0  0  0  0  0  0
   -1.2408    7.4715   -2.6442 C   0  0  0  0  0  0  0  0  0  0  0  0
   -2.5032    8.2757   -2.9710 C   0  0  0  0  0  0  0  0  0  0  0  0
   -3.6269    8.0810   -1.9505 C   0  0  0  0  0  0  0  0  0  0  0  0
   -4.8994    8.8109   -2.3825 C   0  0  0  0  0  0  0  0  0  0  0  0
   -6.0192    8.6243   -1.3712 C   0  0  0  0  0  0  0  0  0  0  0  0
   -2.3239   -6.5605    2.7754 H   0  0  0  0  0  0  0  0  0  0  0  0
   -1.6217   -7.9217    1.8767 H   0  0  0  0  0  0  0  0  0  0  0  0
   -3.2310   -8.0704    2.5878 H   0  0  0  0  0  0  0  0  0  0  0  0
   -2.3454   -7.9973    4.8502 H   0  0  0  0  0  0  0  0  0  0  0  0
   -1.5237   -9.2753    3.9614 H   0  0  0  0  0  0  0  0  0  0  0  0
   -0.4148   -6.4605    4.4777 H   0  0  0  0  0  0  0  0  0  0  0  0
   -0.0087   -7.9042    5.4000 H   0  0  0  0  0  0  0  0  0  0  0  0
    0.9153   -8.9654    3.3078 H   0  0  0  0  0  0  0  0  0  0  0  0
    0.5715   -7.4731    2.4272 H   0  0  0  0  0  0  0  0  0  0  0  0
    2.0864   -6.2026    3.9468 H   0  0  0  0  0  0  0  0  0  0  0  0
    2.3757   -7.6517    4.8919 H   0  0  0  0  0  0  0  0  0  0  0  0
    4.2559   -7.2505    3.4083 H   0  0  0  0  0  0  0  0  0  0  0  0
    3.4714   -8.7719    3.0201 H   0  0  0  0  0  0  0  0  0  0  0  0
    4.1404   -7.6064    0.9961 H   0  0  0  0  0  0  0  0  0  0  0  0
    2.3954   -7.7776    1.0340 H   0  0  0  0  0  0  0  0  0  0  0  0
    3.9167   -5.2364    1.8339 H   0  0  0  0  0  0  0  0  0  0  0  0
    2.1595   -5.4001    1.7695 H   0  0  0  0  0  0  0  0  0  0  0  0
    2.2884   -5.8976   -0.6787 H   0  0  0  0  0  0  0  0  0  0  0  0
    4.0436   -5.7164   -0.6213 H   0  0  0  0  0  0  0  0  0  0  0  0
    2.0205   -3.5389    0.1076 H   0  0  0  0  0  0  0  0  0  0  0  0
    3.7758   -3.3480    0.1510 H   0  0  0  0  0  0  0  0  0  0  0  0
    2.1144   -3.9813   -2.3489 H   0  0  0  0  0  0  0  0  0  0  0  0
    3.8652   -3.9012   -2.3118 H   0  0  0  0  0  0  0  0  0  0  0  0
    3.8504   -1.5464   -1.6967 H   0  0  0  0  0  0  0  0  0  0  0  0
    2.9553   -1.8186   -3.1816 H   0  0  0  0  0  0  0  0  0  0  0  0
    1.8781   -0.1678   -1.7490 H   0  0  0  0  0  0  0  0  0  0  0  0
    1.7470   -1.3021   -0.4134 H   0  0  0  0  0  0  0  0  0  0  0  0
    0.3646   -1.5577   -3.1391 H   0  0  0  0  0  0  0  0  0  0  0  0
    0.2624   -2.7648   -1.8648 H   0  0  0  0  0  0  0  0  0  0  0  0
   -0.8600   -1.1848   -0.3496 H   0  0  0  0  0  0  0  0  0  0  0  0
   -1.7194   -1.4401   -1.8579 H   0  0  0  0  0  0  0  0  0  0  0  0
   -0.3527    0.7756   -2.6221 H   0  0  0  0  0  0  0  0  0  0  0  0
   -1.9386    0.7974   -1.8647 H   0  0  0  0  0  0  0  0  0  0  0  0
   -0.9678    1.1571    0.3643 H   0  0  0  0  0  0  0  0  0  0  0  0
    0.6657    1.0920   -0.2886 H   0  0  0  0  0  0  0  0  0  0  0  0
   -1.4668    3.1443   -1.0753 H   0  0  0  0  0  0  0  0  0  0  0  0
    0.1647    3.0616   -1.7458 H   0  0  0  0  0  0  0  0  0  0  0  0
   -0.4734    3.4347    1.2280 H   0  0  0  0  0  0  0  0  0  0  0  0
    1.1367    3.4591    0.5171 H   0  0  0  0  0  0  0  0  0  0  0  0
    0.2146    5.7225    1.0274 H   0  0  0  0  0  0  0  0  0  0  0  0
   -1.1173    5.4410   -0.0903 H   0  0  0  0  0  0  0  0  0  0  0  0
    1.8411    5.4025   -0.8937 H   0  0  0  0  0  0  0  0  0  0  0  0
    0.4811    5.3170   -1.9996 H   0  0  0  0  0  0  0  0  0  0  0  0
    1.4899    7.5613   -1.9553 H   0  0  0  0  0  0  0  0  0  0  0  0
    1.2564    7.6790   -0.2197 H   0  0  0  0  0  0  0  0  0  0  0  0
   -1.1886    7.7414   -0.4919 H   0  0  0  0  0  0  0  0  0  0  0  0
   -0.3954    9.0159   -1.4010 H   0  0  0  0  0  0  0  0  0  0  0  0
   -0.5427    7.5741   -3.4841 H   0  0  0  0  0  0  0  0  0  0  0  0
   -1.5021    6.4094   -2.5756 H   0  0  0  0  0  0  0  0  0  0  0  0
   -2.8599    7.9635   -3.9604 H   0  0  0  0  0  0  0  0  0  0  0  0
   -2.2521    9.3406   -3.0479 H   0  0  0  0  0  0  0  0  0  0  0  0
   -3.8385    7.0110   -1.8358 H   0  0  0  0  0  0  0  0  0  0  0  0
   -3.3139    8.4574   -0.9702 H   0  0  0  0  0  0  0  0  0  0  0  0
   -4.6934    9.8814   -2.4980 H   0  0  0  0  0  0  0  0  0  0  0  0
   -5.2308    8.4368   -3.3582 H   0  0  0  0  0  0  0  0  0  0  0  0
   -5.7324    9.0184   -0.3910 H   0  0  0  0  0  0  0  0  0  0  0  0
   -6.2710    7.5652   -1.2557 H   0  0  0  0  0  0  0  0  0  0  0  0
   -6.9190    9.1535   -1.7000 H   0  0  0  0  0  0  0  0  0  0  0  0
  1  2  1  0
  2  3  1  0
  3  4  1  0
  4  5  1  0
  5  6  1  0
  6  7  1  0
  7  8  1  0
  8  9  1  0
  9 10  1  0
 10 11  1  0
 11 12  1  0
 12 13  1  0
 13 14  1  0
 14 15  1  0
 15 16  1  0
 16 17  1  0
 17 18  1  0
 18 19  1  0
 19 20  1  0
 20 21  1  0
 21 22  1  0
 22 23  1  0
 23 24  1  0
 24 25  1  0
 25 26  1  0
 26 27  1  0
 27 28  1  0
  1 29  1  0
  1 30  1  0
  1 31  1  0
  2 32  1  0
  2 33  1  0
  3 34  1  0
  3 35  1  0
  4 36  1  0
  4 37  1  0
  5 38  1  0
  5 39  1  0
  6 40  1  0
  6 41  1  0
  7 42  1  0
  7 43  1  0
  8 44  1  0
  8 45  1  0
  9 46  1  0
  9 47  1  0
 10 48  1  0
 10 49  1  0
 11 50  1  0
 11 51  1  0
 12 52  1  0
 12 53  1  0
 13 54  1  0
 13 55  1  0
 14 56  1  0
 14 57  1  0
 15 58  1  0
 15 59  1  0
 16 60  1  0
 16 61  1  0
 17 62  1  0
 17 63  1  0
 18 64  1  0
 18 65  1  0
 19 66  1  0
 19 67  1  0
 20 68  1  0
 20 69  1  0
 21 70  1  0
 21 71  1  0
 22 72  1  0
 22 73  1  0
 23 74  1  0
 23 75  1  0
 24 76  1  0
 24 77  1  0
 25 78  1  0
 25 79  1  0
 26 80  1  0
 26 81  1  0
 27 82  1  0
 27 83  1  0
 28 84  1  0
 28 85  1  0
 28 86  1  0
M  END
$$$$
n-alkane C29H60
     RDKit          3D

 89 88  0  0  0  0  0  0  0  0999 V2000
   -1.3281   -1.4808    2.9791 C   0  0  0  0  0  0  0  0  0  0  0  0
   -0.4020   -2.0340    4.0508 C   0  0  0  0  0  0  0  0  0  0  0  0
    0.5403   -3.1291    3.5441 C   0  0  0  0  0  0  0  0  0  0  0  0
    1.4579   -2.7379    2.3803 C   0  0  0  0  0  0  0  0  0  0  0  0
    2.4510   -1.6309    2.7306 C   0  0  0  0  0  0  0  0  0  0  0  0
    3.2662   -1.1100    1.5410 C   0  0  0  0  0  0  0  0  0  0  0  0
    4.1872   -2.1361    0.8713 C   0  0  0  0  0  0  0  0  0  0  0  0
    3.5391   -2.8299   -0.3317 C   0  0  0  0  0  0  0  0  0  0  0  0
    4.5320   -3.7358   -1.0596 C   0  0  0  0  0  0  0  0  0  0  0  0
    3.9880   -4.3474   -2.3582 C   0  0  0  0  0  0  0  0  0  0  0  0
    2.9695   -5.4762   -2.1649 C   0  0  0  0  0  0  0  0  0  0  0  0
    1.4947   -5.0631   -2.0882 C   0  0  0  0  0  0  0  0  0  0  0  0
    0.7723   -4.9824   -3.4395 C   0  0  0  0  0  0  0  0  0  0  0  0
    1.0960   -3.7728   -4.3201 C   0  0  0  0  0  0  0  0  0  0  0  0
    0.9003   -2.4008   -3.6649 C   0  0  0  0  0  0  0  0  0  0  0  0
   -0.5249   -2.1582   -3.1615 C   0  0  0  0  0  0  0  0  0  0  0  0
   -0.7219   -0.7643   -2.5538 C   0  0  0  0  0  0  0  0  0  0  0  0
    0.0866   -0.5538   -1.2698 C   0  0  0  0  0  0  0  0  0  0  0  0
   -0.3038    0.7148   -0.5053 C   0  0  0  0  0  0  0  0  0  0  0  0
   -0.0180    2.0007   -1.2837 C   0  0  0  0  0  0  0  0  0  0  0  0
   -0.2036    3.2693   -0.4445 C   0  0  0  0  0  0  0  0  0  0  0  0
   -1.5989    3.4767    0.1549 C   0  0  0  0  0  0  0  0  0  0  0  0
   -2.7062    3.5636   -0.8992 C   0  0  0  0  0  0  0  0  0  0  0  0
   -4.0887    3.8541   -0.3015 C   0  0  0  0  0  0  0  0  0  0  0  0
   -4.5125    5.3265   -0.3575 C   0  0  0  0  0  0  0  0  0  0  0  0
   -3.6859    6.3045    0.4785 C   0  0  0  0  0  0  0  0  0  0  0  0
   -3.7768    6.0410    1.9832 C   0  0  0  0  0  0  0  0  0  0  0  0
   -2.9779    7.0771    2.7747 C   0  0  0  0  0  0  0  0  0  0  0  0
   -3.0624    6.8212    4.2710 C   0  0  0  0  0  0  0  0  0  0  0  0
   -1.8886   -2.2837    2.4900 H   0  0  0  0  0  0  0  0  0  0  0  0
   -2.0483   -0.7879    3.4258 H   0  0  0  0  0  0  0  0  0  0  0  0
   -0.7715   -0.9305    2.2154 H   0  0  0  0  0  0  0  0  0  0  0  0
   -1.0150   -2.4559    4.8567 H   0  0  0  0  0  0  0  0  0  0  0  0
    0.1692   -1.2140    4.4989 H   0  0  0  0  0  0  0  0  0  0  0  0
   -0.0627   -3.9902    3.2292 H   0  0  0  0  0  0  0  0  0  0  0  0
    1.1557   -3.4758    4.3836 H   0  0  0  0  0  0  0  0  0  0  0  0
    0.8580   -2.4475    1.5114 H   0  0  0  0  0  0  0  0  0  0  0  0
    2.0148   -3.6372    2.0940 H   0  0  0  0  0  0  0  0  0  0  0  0
    3.1334   -1.9885    3.5113 H   0  0  0  0  0  0  0  0  0  0  0  0
    1.9161   -0.7731    3.1530 H   0  0  0  0  0  0  0  0  0  0  0  0
    2.5974   -0.6520    0.8029 H   0  0  0  0  0  0  0  0  0  0  0  0
    3.8974   -0.2970    1.9232 H   0  0  0  0  0  0  0  0  0  0  0  0
    5.0781   -1.6031    0.5148 H   0  0  0  0  0  0  0  0  0  0  0  0
    4.5365   -2.8768    1.6000 H   0  0  0  0  0  0  0  0  0  0  0  0
    2.6853   -3.4201    0.0028 H   0  0  0  0  0  0  0  0  0  0  0  0
    3.1655   -2.0713   -1.0282 H   0  0  0  0  0  0  0  0  0  0  0  0
    5.4201   -3.1447   -1.3176 H   0  0  0  0  0  0  0  0  0  0  0  0
    4.8740   -4.5315   -0.3867 H   0  0  0  0  0  0  0  0  0  0  0  0
    4.8501   -4.7802   -2.8830 H   0  0  0  0  0  0  0  0  0  0  0  0
    3.6040   -3.5602   -3.0108 H   0  0  0  0  0  0  0  0  0  0  0  0
    3.2252   -6.0255   -1.2500 H   0  0  0  0  0  0  0  0  0  0  0  0
    3.0874   -6.1956   -2.9851 H   0  0  0  0  0  0  0  0  0  0  0  0
    0.9796   -5.8430   -1.5109 H   0  0  0  0  0  0  0  0  0  0  0  0
    1.3566   -4.1407   -1.5216 H   0  0  0  0  0  0  0  0  0  0  0  0
    0.9746   -5.8958   -4.0130 H   0  0  0  0  0  0  0  0  0  0  0  0
   -0.3079   -4.9938   -3.2481 H   0  0  0  0  0  0  0  0  0  0  0  0
    2.1276   -3.8512   -4.6808 H   0  0  0  0  0  0  0  0  0  0  0  0
    0.4640   -3.8250   -5.2159 H   0  0  0  0  0  0  0  0  0  0  0  0
    1.6142   -2.2859   -2.8458 H   0  0  0  0  0  0  0  0  0  0  0  0
    1.1541   -1.6294   -4.4026 H   0  0  0  0  0  0  0  0  0  0  0  0
   -0.7997   -2.9087   -2.4122 H   0  0  0  0  0  0  0  0  0  0  0  0
   -1.2236   -2.2747   -3.9989 H   0  0  0  0  0  0  0  0  0  0  0  0
   -1.7887   -0.6364   -2.3326 H   0  0  0  0  0  0  0  0  0  0  0  0
   -0.4564   -0.0040   -3.2971 H   0  0  0  0  0  0  0  0  0  0  0  0
   -0.0638   -1.4122   -0.6041 H   0  0  0  0  0  0  0  0  0  0  0  0
    1.1566   -0.5144   -1.5014 H   0  0  0  0  0  0  0  0  0  0  0  0
   -1.3659    0.6596   -0.2413 H   0  0  0  0  0  0  0  0  0  0  0  0
    0.2577    0.7330    0.4369 H   0  0  0  0  0  0  0  0  0  0  0  0
    1.0187    1.9806   -1.6423 H   0  0  0  0  0  0  0  0  0  0  0  0
   -0.6516    2.0540   -2.1754 H   0  0  0  0  0  0  0  0  0  0  0  0
    0.0468    4.1368   -1.0679 H   0  0  0  0  0  0  0  0  0  0  0  0
    0.5258    3.2601    0.3752 H   0  0  0  0  0  0  0  0  0  0  0  0
   -1.5697    4.3982    0.7439 H   0  0  0  0  0  0  0  0  0  0  0  0
   -1.8252    2.6713    0.8633 H   0  0  0  0  0  0  0  0  0  0  0  0
   -2.4517    4.3090   -1.6615 H   0  0  0  0  0  0  0  0  0  0  0  0
   -2.7679    2.5972   -1.4140 H   0  0  0  0  0  0  0  0  0  0  0  0
   -4.1672    3.4616    0.7182 H   0  0  0  0  0  0  0  0  0  0  0  0
   -4.8262    3.2954   -0.8932 H   0  0  0  0  0  0  0  0  0  0  0  0
   -5.5614    5.3945   -0.0419 H   0  0  0  0  0  0  0  0  0  0  0  0
   -4.4889    5.6595   -1.4029 H   0  0  0  0  0  0  0  0  0  0  0  0
   -4.0568    7.3177    0.2769 H   0  0  0  0  0  0  0  0  0  0  0  0
   -2.6412    6.2941    0.1500 H   0  0  0  0  0  0  0  0  0  0  0  0
   -4.8274    6.0700    2.2968 H   0  0  0  0  0  0  0  0  0  0  0  0
   -3.3986    5.0405    2.2187 H   0  0  0  0  0  0  0  0  0  0  0  0
   -1.9267    7.0520    2.4646 H   0  0  0  0  0  0  0  0  0  0  0  0
   -3.3562    8.0833    2.5601 H   0  0  0  0  0  0  0  0  0  0  0  0
   -4.0991    6.8699    4.6193 H   0  0  0  0  0  0  0  0  0  0  0  0
   -2.4848    7.5734    4.8173 H   0  0  0  0  0  0  0  0  0  0  0  0
   -2.6606    5.8348    4.5236 H   0  0  0  0  0  0  0  0  0  0  0  0
  1  2  1  0
  2  3  1  0
  3  4  1  0
  4  5  1  0
  5  6  1  0
  6  7  1  0
  7  8  1  0
  8  9  1  0
  9 10  1  0
 10 11  1  0
 11 12  1  0
 12 13  1  0
 13 14  1  0
 14 15  1  0
 15 16  1  0
 16 17  1  0
 17 18  1  0
 18 19  1  0
 19 20  1  0
 20 21  1  0
 21 22  1  0
 22 23  1  0
 23 24  1  0
 24 25  1  0
 25 26  1  0
 26 27  1  0
 27 28  1  0
 28 29  1  0
  1 30  1  0
  1 31  1  0
  1 32  1  0
  2 33  1  0
  2 34  1  0
  3 35  1  0
  3 36  1  0
  4 37  1  0
  4 38  1  0
  5 39  1  0
  5 40  1  0
  6 41  1  0
  6 42  1  0
  7 43  1  0
  7 44  1  0
  8 45  1  0
  8 46  1  0
  9 47  1  0
  9 48  1  0
 10 49  1  0
 10 50  1  0
 11 51  1  0
 11 52  1  0
 12 53  1  0
 12 54  1  0
 13 55  1  0
 13 56  1  0
 14 57  1  0
 14 58  1  0
 15 59  1  0
 15 60  1  0
 16 61  1  0
 16 62  1  0
 17 63  1  0
 17 64  1  0
 18 65  1  0
 18 66  1  0
 19 67  1  0
 19 68  1  0
 20 69  1  0
 20 70  1  0
 21 71  1  0
 21 72  1  0
 22 73  1  0
 22 74  1  0
 23 75  1  0
 23 76  1  0
 24 77  1  0
 24 78  1  0
 25 79  1  0
 25 80  1  0
 26 81  1  0
 26 82  1  0
 27 83  1  0
 27 84  1  0
 28 85  1  0
 28 86  1  0
 29 87  1  0
 29 88  1  0
 29 89  1  0
M  END
$$$$
n-alkane C30H62
     RDKit          3D

 92 91  0  0  0  0  0  0  0  0999 V2000
   -0.2083   -1.3346    4.9822 C   0  0  0  0  0  0  0  0  0  0  0  0
    1.1868   -1.2287    5.5788 C   0  0  0  0  0  0  0  0  0  0  0  0
    1.8449   -2.5851    5.8491 C   0  0  0  0  0  0  0  0  0  0  0  0
    1.9934   -3.5074    4.6340 C   0  0  0  0  0  0  0  0  0  0  0  0
    2.8073   -2.8845    3.4978 C   0  0  0  0  0  0  0  0  0  0  0  0
    3.1105   -3.8553    2.3506 C   0  0  0  0  0  0  0  0  0  0  0  0
    1.8497   -4.4232    1.6958 C   0  0  0  0  0  0  0  0  0  0  0  0
    2.1196   -5.2034    0.4053 C   0  0  0  0  0  0  0  0  0  0  0  0
    2.6993   -4.3905   -0.7577 C   0  0  0  0  0  0  0  0  0  0  0  0
    1.8372   -3.1886   -1.1552 C   0  0  0  0  0  0  0  0  0  0  0  0
    2.3990   -2.4886   -2.3942 C   0  0  0  0  0  0  0  0  0  0  0  0
    1.5400   -1.3147   -2.8773 C   0  0  0  0  0  0  0  0  0  0  0  0
    1.4914   -0.1522   -1.8816 C   0  0  0  0  0  0  0  0  0  0  0  0
    0.7468    1.0784   -2.4118 C   0  0  0  0  0  0  0  0  0  0  0  0
    1.4554    1.7498   -3.5915 C   0  0  0  0  0  0  0  0  0  0  0  0
    0.9062    3.1430   -3.9151 C   0  0  0  0  0  0  0  0  0  0  0  0
   -0.5479    3.1279   -4.3924 C   0  0  0  0  0  0  0  0  0  0  0  0
   -1.0261    4.4851   -4.9139 C   0  0  0  0  0  0  0  0  0  0  0  0
   -0.9380    5.6732   -3.9489 C   0  0  0  0  0  0  0  0  0  0  0  0
   -1.9240    5.6398   -2.7758 C   0  0  0  0  0  0  0  0  0  0  0  0
   -1.3884    4.9270   -1.5318 C   0  0  0  0  0  0  0  0  0  0  0  0
   -2.3589    5.0727   -0.3567 C   0  0  0  0  0  0  0  0  0  0  0  0
   -1.8847    4.3713    0.9201 C   0  0  0  0  0  0  0  0  0  0  0  0
   -1.6897    2.8534    0.8223 C   0  0  0  0  0  0  0  0  0  0  0  0
   -2.9524    2.1053    0.3904 C   0  0  0  0  0  0  0  0  0  0  0  0
   -2.7729    0.5856    0.3199 C   0  0  0  0  0  0  0  0  0  0  0  0
   -2.4652   -0.0573    1.6746 C   0  0  0  0  0  0  0  0  0  0  0  0
   -2.6350   -1.5794    1.6720 C   0  0  0  0  0  0  0  0  0  0  0  0
   -1.6861   -2.2987    0.7132 C   0  0  0  0  0  0  0  0  0  0  0  0
   -1.8305   -3.8084    0.8292 C   0  0  0  0  0  0  0  0  0  0  0  0
   -0.8589   -1.9514    5.6103 H   0  0  0  0  0  0  0  0  0  0  0  0
   -0.1830   -1.7681    3.9785 H   0  0  0  0  0  0  0  0  0  0  0  0
   -0.6589   -0.3397    4.9012 H   0  0  0  0  0  0  0  0  0  0  0  0
    1.8202   -0.6231    4.9208 H   0  0  0  0  0  0  0  0  0  0  0  0
    1.1190   -0.6833    6.5277 H   0  0  0  0  0  0  0  0  0  0  0  0
    1.2644   -3.1147    6.6153 H   0  0  0  0  0  0  0  0  0  0  0  0
    2.8372   -2.4081    6.2835 H   0  0  0  0  0  0  0  0  0  0  0  0
    2.4847   -4.4313    4.9634 H   0  0  0  0  0  0  0  0  0  0  0  0
    0.9988   -3.7955    4.2765 H   0  0  0  0  0  0  0  0  0  0  0  0
    2.2774   -2.0157    3.0893 H   0  0  0  0  0  0  0  0  0  0  0  0
    3.7610   -2.5155    3.8953 H   0  0  0  0  0  0  0  0  0  0  0  0
    3.7334   -4.6790    2.7189 H   0  0  0  0  0  0  0  0  0  0  0  0
    3.7096   -3.3117    1.6122 H   0  0  0  0  0  0  0  0  0  0  0  0
    1.1338   -3.6189    1.5037 H   0  0  0  0  0  0  0  0  0  0  0  0
    1.3592   -5.1072    2.3990 H   0  0  0  0  0  0  0  0  0  0  0  0
    1.1762   -5.6568    0.0756 H   0  0  0  0  0  0  0  0  0  0  0  0
    2.8003   -6.0353    0.6244 H   0  0  0  0  0  0  0  0  0  0  0  0
    2.8033   -5.0608   -1.6199 H   0  0  0  0  0  0  0  0  0  0  0  0
    3.7122   -4.0527   -0.5112 H   0  0  0  0  0  0  0  0  0  0  0  0
    1.8000   -2.4786   -0.3233 H   0  0  0  0  0  0  0  0  0  0  0  0
    0.8118   -3.5200   -1.3550 H   0  0  0  0  0  0  0  0  0  0  0  0
    2.4773   -3.2153   -3.2122 H   0  0  0  0  0  0  0  0  0  0  0  0
    3.4168   -2.1354   -2.1890 H   0  0  0  0  0  0  0  0  0  0  0  0
    0.5218   -1.6627   -3.0896 H   0  0  0  0  0  0  0  0  0  0  0  0
    1.9624   -0.9706   -3.8276 H   0  0  0  0  0  0  0  0  0  0  0  0
    0.9853   -0.4769   -0.9651 H   0  0  0  0  0  0  0  0  0  0  0  0
    2.5100    0.1360   -1.5955 H   0  0  0  0  0  0  0  0  0  0  0  0
   -0.2725    0.7929   -2.6952 H   0  0  0  0  0  0  0  0  0  0  0  0
    0.6607    1.7990   -1.5900 H   0  0  0  0  0  0  0  0  0  0  0  0
    2.5230    1.8532   -3.3610 H   0  0  0  0  0  0  0  0  0  0  0  0
    1.3821    1.1192   -4.4844 H   0  0  0  0  0  0  0  0  0  0  0  0
    1.5363    3.5844   -4.6973 H   0  0  0  0  0  0  0  0  0  0  0  0
    1.0097    3.7798   -3.0298 H   0  0  0  0  0  0  0  0  0  0  0  0
   -1.2151    2.7790   -3.5990 H   0  0  0  0  0  0  0  0  0  0  0  0
   -0.6448    2.4010   -5.2093 H   0  0  0  0  0  0  0  0  0  0  0  0
   -0.4354    4.7341   -5.8052 H   0  0  0  0  0  0  0  0  0  0  0  0
   -2.0619    4.3811   -5.2597 H   0  0  0  0  0  0  0  0  0  0  0  0
    0.0877    5.8186   -3.5929 H   0  0  0  0  0  0  0  0  0  0  0  0
   -1.1748    6.5683   -4.5403 H   0  0  0  0  0  0  0  0  0  0  0  0
   -2.8739    5.1911   -3.0897 H   0  0  0  0  0  0  0  0  0  0  0  0
   -2.1473    6.6790   -2.5001 H   0  0  0  0  0  0  0  0  0  0  0  0
   -1.2352    3.8690   -1.7489 H   0  0  0  0  0  0  0  0  0  0  0  0
   -0.4153    5.3471   -1.2525 H   0  0  0  0  0  0  0  0  0  0  0  0
   -2.4855    6.1392   -0.1303 H   0  0  0  0  0  0  0  0  0  0  0  0
   -3.3505    4.7037   -0.6416 H   0  0  0  0  0  0  0  0  0  0  0  0
   -0.9378    4.8219    1.2432 H   0  0  0  0  0  0  0  0  0  0  0  0
   -2.6107    4.5803    1.7160 H   0  0  0  0  0  0  0  0  0  0  0  0
   -1.3703    2.5001    1.8094 H   0  0  0  0  0  0  0  0  0  0  0  0
   -0.8690    2.6243    0.1349 H   0  0  0  0  0  0  0  0  0  0  0  0
   -3.2573    2.4438   -0.6062 H   0  0  0  0  0  0  0  0  0  0  0  0
   -3.7759    2.3454    1.0733 H   0  0  0  0  0  0  0  0  0  0  0  0
   -1.9773    0.3497   -0.3955 H   0  0  0  0  0  0  0  0  0  0  0  0
   -3.6985    0.1560   -0.0817 H   0  0  0  0  0  0  0  0  0  0  0  0
   -3.1376    0.3572    2.4360 H   0  0  0  0  0  0  0  0  0  0  0  0
   -1.4426    0.1897    1.9824 H   0  0  0  0  0  0  0  0  0  0  0  0
   -3.6732   -1.8300    1.4223 H   0  0  0  0  0  0  0  0  0  0  0  0
   -2.4617   -1.9440    2.6915 H   0  0  0  0  0  0  0  0  0  0  0  0
   -0.6507   -2.0149    0.9307 H   0  0  0  0  0  0  0  0  0  0  0  0
   -1.8941   -2.0048   -0.3210 H   0  0  0  0  0  0  0  0  0  0  0  0
   -1.5840   -4.1493    1.8398 H   0  0  0  0  0  0  0  0  0  0  0  0
   -2.8534   -4.1231    0.6001 H   0  0  0  0  0  0  0  0  0  0  0  0
   -1.1566   -4.3104    0.1286 H   0  0  0  0  0  0  0  0  0  0  0  0
  1  2  1  0
  2  3  1  0
  3  4  1  0
  4  5  1  0
  5  6  1  0
  6  7  1  0
  7  8  1  0
  8  9  1  0
  9 10  1  0
 10 11  1  0
 11 12  1  0
 12 13  1  0
 13 14  1  0
 14 15  1  0
 15 16  1  0
 16 17  1  0
 17 18  1  0
 18 19  1  0
 19 20  1  0
 20 21  1  0
 21 22  1  0
 22 23  1  0
 23 24  1  0
 24 25  1  0
 25 26  1  0
 26 27  1  0
 27 28  1  0
 28 29  1  0
 29 30  1  0
  1 31  1  0
  1 32  1  0
  1 33  1  0
  2 34  1  0
  2 35  1  0
  3 36  1  0
  3 37  1  0
  4 38  1  0
  4 39  1  0
  5 40  1  0
  5 41  1  0
  6 42  1  0
  6 43  1  0
  7 44  1  0
  7 45  1  0
  8 46  1  0
  8 47  1  0
  9 48  1  0
  9 49  1  0
 10 50  1  0
 10 51  1  0
 11 52  1  0
 11 53  1  0
 12 54  1  0
 12 55  1  0
 13 56  1  0
 13 57  1  0
 14 58  1  0
 14 59  1  0
 15 60  1  0
 15 61  1  0
 16 62  1  0
 16 63  1  0
 17 64  1  0
 17 65  1  0
 18 66  1  0
 18 67  1  0
 19 68  1  0
 19 69  1  0
 20 70  1  0
 20 71  1  0
 21 72  1  0
 21 73  1  0
 22 74  1  0
 22 75  1  0
 23 76  1  0
 23 77  1  0
 24 78  1  0
 24 79  1  0
 25 80  1  0
 25 81  1  0
 26 82  1  0
 26 83  1  0
 27 84  1  0
 27 85  1  0
 28 86  1  0
 28 87  1  0
 29 88  1  0
 29 89  1  0
 30 90  1  0
 30 91  1  0
 30 92  1  0
M  END
$$$$
n-alkane C31H64
     RDKit          3D

 95 94  0  0  0  0  0  0  0  0999 V2000
   -2.9365    0.4465    5.8786 C   0  0  0  0  0  0  0  0  0  0  0  0
   -2.6438    0.5215    4.3883 C   0  0  0  0  0  0  0  0  0  0  0  0
   -1.2470    0.0223    4.0093 C   0  0  0  0  0  0  0  0  0  0  0  0
   -1.0477   -1.4744    4.2646 C   0  0  0  0  0  0  0  0  0  0  0  0
    0.3506   -1.9763    3.8866 C   0  0  0  0  0  0  0  0  0  0  0  0
    0.6302   -1.9139    2.3848 C   0  0  0  0  0  0  0  0  0  0  0  0
    1.9840   -2.5371    2.0351 C   0  0  0  0  0  0  0  0  0  0  0  0
    2.2663   -2.4158    0.5361 C   0  0  0  0  0  0  0  0  0  0  0  0
    3.6379   -2.9873    0.1674 C   0  0  0  0  0  0  0  0  0  0  0  0
    3.9387   -2.9222   -1.3356 C   0  0  0  0  0  0  0  0  0  0  0  0
    4.0225   -1.4885   -1.8646 C   0  0  0  0  0  0  0  0  0  0  0  0
    4.3873   -1.4412   -3.3517 C   0  0  0  0  0  0  0  0  0  0  0  0
    4.5333   -0.0091   -3.8842 C   0  0  0  0  0  0  0  0  0  0  0  0
    3.2181    0.7749   -3.8640 C   0  0  0  0  0  0  0  0  0  0  0  0
    3.4036    2.2187   -4.3358 C   0  0  0  0  0  0  0  0  0  0  0  0
    2.0992    3.0285   -4.3565 C   0  0  0  0  0  0  0  0  0  0  0  0
    1.2632    2.9911   -3.0706 C   0  0  0  0  0  0  0  0  0  0  0  0
    1.9877    3.5485   -1.8416 C   0  0  0  0  0  0  0  0  0  0  0  0
    1.3177    3.1590   -0.5197 C   0  0  0  0  0  0  0  0  0  0  0  0
   -0.1118    3.6815   -0.3661 C   0  0  0  0  0  0  0  0  0  0  0  0
   -0.7033    3.2522    0.9813 C   0  0  0  0  0  0  0  0  0  0  0  0
   -2.1643    3.6770    1.1609 C   0  0  0  0  0  0  0  0  0  0  0  0
   -3.1853    2.5721    0.8627 C   0  0  0  0  0  0  0  0  0  0  0  0
   -3.2356    2.1460   -0.6057 C   0  0  0  0  0  0  0  0  0  0  0  0
   -4.3396    1.1189   -0.8863 C   0  0  0  0  0  0  0  0  0  0  0  0
   -3.8471   -0.3311   -0.9649 C   0  0  0  0  0  0  0  0  0  0  0  0
   -3.2543   -0.8612    0.3413 C   0  0  0  0  0  0  0  0  0  0  0  0
   -2.9721   -2.3676    0.3051 C   0  0  0  0  0  0  0  0  0  0  0  0
   -1.9031   -2.7555   -0.7207 C   0  0  0  0  0  0  0  0  0  0  0  0
   -1.4476   -4.2116   -0.5969 C   0  0  0  0  0  0  0  0  0  0  0  0
   -2.5461   -5.2176   -0.9032 C   0  0  0  0  0  0  0  0  0  0  0  0
   -2.9878   -0.5890    6.2269 H   0  0  0  0  0  0  0  0  0  0  0  0
   -2.1688    0.9700    6.4571 H   0  0  0  0  0  0  0  0  0  0  0  0
   -3.9019    0.9153    6.0950 H   0  0  0  0  0  0  0  0  0  0  0  0
   -3.4044   -0.0438    3.8372 H   0  0  0  0  0  0  0  0  0  0  0  0
   -2.7346    1.5673    4.0712 H   0  0  0  0  0  0  0  0  0  0  0  0
   -1.0978    0.2377    2.9456 H   0  0  0  0  0  0  0  0  0  0  0  0
   -0.4906    0.5957    4.5585 H   0  0  0  0  0  0  0  0  0  0  0  0
   -1.1983   -1.6875    5.3289 H   0  0  0  0  0  0  0  0  0  0  0  0
   -1.8046   -2.0479    3.7163 H   0  0  0  0  0  0  0  0  0  0  0  0
    0.4432   -3.0160    4.2243 H   0  0  0  0  0  0  0  0  0  0  0  0
    1.1084   -1.3987    4.4298 H   0  0  0  0  0  0  0  0  0  0  0  0
    0.6181   -0.8727    2.0442 H   0  0  0  0  0  0  0  0  0  0  0  0
   -0.1622   -2.4421    1.8443 H   0  0  0  0  0  0  0  0  0  0  0  0
    2.7772   -2.0334    2.6006 H   0  0  0  0  0  0  0  0  0  0  0  0
    1.9937   -3.5933    2.3297 H   0  0  0  0  0  0  0  0  0  0  0  0
    1.4871   -2.9405   -0.0292 H   0  0  0  0  0  0  0  0  0  0  0  0
    2.2123   -1.3578    0.2580 H   0  0  0  0  0  0  0  0  0  0  0  0
    4.4212   -2.4533    0.7190 H   0  0  0  0  0  0  0  0  0  0  0  0
    3.6866   -4.0363    0.4844 H   0  0  0  0  0  0  0  0  0  0  0  0
    4.8923   -3.4316   -1.5203 H   0  0  0  0  0  0  0  0  0  0  0  0
    3.1697   -3.4764   -1.8875 H   0  0  0  0  0  0  0  0  0  0  0  0
    3.0559   -1.0003   -1.7164 H   0  0  0  0  0  0  0  0  0  0  0  0
    4.7657   -0.9266   -1.2865 H   0  0  0  0  0  0  0  0  0  0  0  0
    5.3380   -1.9661   -3.5055 H   0  0  0  0  0  0  0  0  0  0  0  0
    3.6296   -1.9756   -3.9373 H   0  0  0  0  0  0  0  0  0  0  0  0
    5.2913    0.5211   -3.2948 H   0  0  0  0  0  0  0  0  0  0  0  0
    4.9070   -0.0552   -4.9143 H   0  0  0  0  0  0  0  0  0  0  0  0
    2.4783    0.2699   -4.4963 H   0  0  0  0  0  0  0  0  0  0  0  0
    2.8238    0.7868   -2.8449 H   0  0  0  0  0  0  0  0  0  0  0  0
    4.1388    2.7222   -3.6973 H   0  0  0  0  0  0  0  0  0  0  0  0
    3.8271    2.2201   -5.3479 H   0  0  0  0  0  0  0  0  0  0  0  0
    1.4735    2.6549   -5.1770 H   0  0  0  0  0  0  0  0  0  0  0  0
    2.3383    4.0706   -4.6015 H   0  0  0  0  0  0  0  0  0  0  0  0
    0.3536    3.5794   -3.2436 H   0  0  0  0  0  0  0  0  0  0  0  0
    0.9260    1.9656   -2.8812 H   0  0  0  0  0  0  0  0  0  0  0  0
    3.0162    3.1750   -1.8023 H   0  0  0  0  0  0  0  0  0  0  0  0
    2.0528    4.6403   -1.9200 H   0  0  0  0  0  0  0  0  0  0  0  0
    1.3204    2.0655   -0.4271 H   0  0  0  0  0  0  0  0  0  0  0  0
    1.9314    3.5440    0.3043 H   0  0  0  0  0  0  0  0  0  0  0  0
   -0.1115    4.7760   -0.4348 H   0  0  0  0  0  0  0  0  0  0  0  0
   -0.7337    3.3110   -1.1845 H   0  0  0  0  0  0  0  0  0  0  0  0
   -0.1084    3.7229    1.7747 H   0  0  0  0  0  0  0  0  0  0  0  0
   -0.6012    2.1690    1.1178 H   0  0  0  0  0  0  0  0  0  0  0  0
   -2.3886    4.5714    0.5680 H   0  0  0  0  0  0  0  0  0  0  0  0
   -2.3027    3.9618    2.2121 H   0  0  0  0  0  0  0  0  0  0  0  0
   -4.1753    2.9425    1.1577 H   0  0  0  0  0  0  0  0  0  0  0  0
   -2.9770    1.7085    1.5017 H   0  0  0  0  0  0  0  0  0  0  0  0
   -2.2695    1.7466   -0.9292 H   0  0  0  0  0  0  0  0  0  0  0  0
   -3.4324    3.0389   -1.2122 H   0  0  0  0  0  0  0  0  0  0  0  0
   -5.1501    1.2014   -0.1526 H   0  0  0  0  0  0  0  0  0  0  0  0
   -4.7831    1.3591   -1.8613 H   0  0  0  0  0  0  0  0  0  0  0  0
   -3.1067   -0.4086   -1.7696 H   0  0  0  0  0  0  0  0  0  0  0  0
   -4.6957   -0.9622   -1.2571 H   0  0  0  0  0  0  0  0  0  0  0  0
   -2.3238   -0.3317    0.5747 H   0  0  0  0  0  0  0  0  0  0  0  0
   -3.9535   -0.6627    1.1626 H   0  0  0  0  0  0  0  0  0  0  0  0
   -3.9055   -2.9031    0.0970 H   0  0  0  0  0  0  0  0  0  0  0  0
   -2.6447   -2.6784    1.3044 H   0  0  0  0  0  0  0  0  0  0  0  0
   -2.2762   -2.5829   -1.7367 H   0  0  0  0  0  0  0  0  0  0  0  0
   -1.0266   -2.1091   -0.5908 H   0  0  0  0  0  0  0  0  0  0  0  0
   -0.6182   -4.3765   -1.2949 H   0  0  0  0  0  0  0  0  0  0  0  0
   -1.0549   -4.3968    0.4096 H   0  0  0  0  0  0  0  0  0  0  0  0
   -3.3494   -5.1720   -0.1621 H   0  0  0  0  0  0  0  0  0  0  0  0
   -2.1392   -6.2339   -0.8885 H   0  0  0  0  0  0  0  0  0  0  0  0
   -2.9771   -5.0397   -1.8935 H   0  0  0  0  0  0  0  0  0  0  0  0
  1  2  1  0
  2  3  1  0
  3  4  1  0
  4  5  1  0
  5  6  1  0
  6  7  1  0
  7  8  1  0
  8  9  1  0
  9 10  1  0
 10 11  1  0
 11 12  1  0
 12 13  1  0
 13 14  1  0
 14 15  1  0
 15 16  1  0
 16 17  1  0
 17 18  1  0
 18 19  1  0
 19 20  1  0
 20 21  1  0
 21 22  1  0
 22 23  1  0
 23 24  1  0
 24 25  1  0
 25 26  1  0
 26 27  1  0
 27 28  1  0
 28 29  1  0
 29 30  1  0
 30 31  1  0
  1 32  1  0
  1 33  1  0
  1 34  1  0
  2 35  1  0
  2 36  1  0
  3 37  1  0
  3 38  1  0
  4 39  1  0
  4 40  1  0
  5 41  1  0
  5 42  1  0
  6 43  1  0
  6 44  1  0
  7 45  1  0
  7 46  1  0
  8 47  1  0
  8 48  1  0
  9 49  1  0
  9 50  1  0
 10 51  1  0
 10 52  1  0
 11 53  1  0
 11 54  1  0
 12 55  1  0
 12 56  1  0
 13 57  1  0
 13 58  1  0
 14 59  1  0
 14 60  1  0
 15 61  1  0
 15 62  1  0
 16 63  1  0
 16 64  1  0
 17 65  1  0
 17 66  1  0
 18 67  1  0
 18 68  1  0
 19 69  1  0
 19 70  1  0
 20 71  1  0
 20 72  1  0
 21 73  1  0
 21 74  1  0
 22 75  1  0
 22 76  1  0
 23 77  1  0
 23 78  1  0
 24 79  1  0
 24 80  1  0
 25 81  1  0
 25 82  1  0
 26 83  1  0
 26 84  1  0
 27 85  1  0
 27 86  1  0
 28 87  1  0
 28 88  1  0
 29 89  1  0
 29 90  1  0
 30 91  1  0
 30 92  1  0
 31 93  1  0
 31 94  1  0
 31 95  1  0
M  END
$$$$
n-alkane C32H66
     RDKit          3D

 98 97  0  0  0  0  0  0  0  0999 V2000
   -1.7584   -4.3537    8.4073 C   0  0  0  0  0  0  0  0  0  0  0  0
   -1.1482   -3.4644    7.3357 C   0  0  0  0  0  0  0  0  0  0  0  0
   -0.5839   -4.2884    6.1787 C   0  0  0  0  0  0  0  0  0  0  0  0
    0.0286   -3.3901    5.1030 C   0  0  0  0  0  0  0  0  0  0  0  0
    0.5926   -4.2145    3.9446 C   0  0  0  0  0  0  0  0  0  0  0  0
    1.2018   -3.3149    2.8673 C   0  0  0  0  0  0  0  0  0  0  0  0
    1.7601   -4.1413    1.7064 C   0  0  0  0  0  0  0  0  0  0  0  0
    2.2368   -3.2828    0.5311 C   0  0  0  0  0  0  0  0  0  0  0  0
    3.4655   -2.4323    0.8634 C   0  0  0  0  0  0  0  0  0  0  0  0
    4.0319   -1.6926   -0.3533 C   0  0  0  0  0  0  0  0  0  0  0  0
    3.0959   -0.6052   -0.8849 C   0  0  0  0  0  0  0  0  0  0  0  0
    3.7352    0.1647   -2.0430 C   0  0  0  0  0  0  0  0  0  0  0  0
    2.7957    1.2555   -2.5610 C   0  0  0  0  0  0  0  0  0  0  0  0
    3.4031    2.0026   -3.7517 C   0  0  0  0  0  0  0  0  0  0  0  0
    2.4398    3.0274   -4.3571 C   0  0  0  0  0  0  0  0  0  0  0  0
    2.2644    4.2787   -3.4912 C   0  0  0  0  0  0  0  0  0  0  0  0
    1.1618    5.1786   -4.0537 C   0  0  0  0  0  0  0  0  0  0  0  0
    1.0057    6.5111   -3.3150 C   0  0  0  0  0  0  0  0  0  0  0  0
    0.7619    6.4254   -1.8048 C   0  0  0  0  0  0  0  0  0  0  0  0
   -0.3852    5.5142   -1.3592 C   0  0  0  0  0  0  0  0  0  0  0  0
   -1.7447    5.8995   -1.9464 C   0  0  0  0  0  0  0  0  0  0  0  0
   -2.9059    5.0835   -1.3650 C   0  0  0  0  0  0  0  0  0  0  0  0
   -2.7787    3.5790   -1.6222 C   0  0  0  0  0  0  0  0  0  0  0  0
   -4.0195    2.8204   -1.1443 C   0  0  0  0  0  0  0  0  0  0  0  0
   -3.9389    1.3127   -1.4059 C   0  0  0  0  0  0  0  0  0  0  0  0
   -2.8913    0.6044   -0.5422 C   0  0  0  0  0  0  0  0  0  0  0  0
   -2.8890   -0.9058   -0.7946 C   0  0  0  0  0  0  0  0  0  0  0  0
   -1.8618   -1.6125    0.0934 C   0  0  0  0  0  0  0  0  0  0  0  0
   -1.8586   -3.1344   -0.0797 C   0  0  0  0  0  0  0  0  0  0  0  0
   -1.3550   -3.5816   -1.4547 C   0  0  0  0  0  0  0  0  0  0  0  0
   -1.1182   -5.0909   -1.5488 C   0  0  0  0  0  0  0  0  0  0  0  0
   -2.3865   -5.9148   -1.3901 C   0  0  0  0  0  0  0  0  0  0  0  0
   -2.5794   -4.9522    7.9998 H   0  0  0  0  0  0  0  0  0  0  0  0
   -2.1556   -3.7440    9.2249 H   0  0  0  0  0  0  0  0  0  0  0  0
   -1.0101   -5.0353    8.8244 H   0  0  0  0  0  0  0  0  0  0  0  0
   -0.3530   -2.8566    7.7828 H   0  0  0  0  0  0  0  0  0  0  0  0
   -1.9137   -2.7740    6.9628 H   0  0  0  0  0  0  0  0  0  0  0  0
   -1.3824   -4.8976    5.7378 H   0  0  0  0  0  0  0  0  0  0  0  0
    0.1784   -4.9801    6.5576 H   0  0  0  0  0  0  0  0  0  0  0  0
   -0.7338   -2.6984    4.7243 H   0  0  0  0  0  0  0  0  0  0  0  0
    0.8273   -2.7812    5.5437 H   0  0  0  0  0  0  0  0  0  0  0  0
   -0.2069   -4.8237    3.5055 H   0  0  0  0  0  0  0  0  0  0  0  0
    1.3565   -4.9053    4.3215 H   0  0  0  0  0  0  0  0  0  0  0  0
    1.9984   -2.7089    3.3131 H   0  0  0  0  0  0  0  0  0  0  0  0
    0.4375   -2.6228    2.4939 H   0  0  0  0  0  0  0  0  0  0  0  0
    2.5823   -4.7740    2.0617 H   0  0  0  0  0  0  0  0  0  0  0  0
    0.9786   -4.8178    1.3396 H   0  0  0  0  0  0  0  0  0  0  0  0
    1.4116   -2.6439    0.1991 H   0  0  0  0  0  0  0  0  0  0  0  0
    2.4786   -3.9498   -0.3055 H   0  0  0  0  0  0  0  0  0  0  0  0
    4.2514   -3.0828    1.2662 H   0  0  0  0  0  0  0  0  0  0  0  0
    3.2244   -1.7034    1.6451 H   0  0  0  0  0  0  0  0  0  0  0  0
    4.9842   -1.2326   -0.0615 H   0  0  0  0  0  0  0  0  0  0  0  0
    4.2592   -2.4113   -1.1499 H   0  0  0  0  0  0  0  0  0  0  0  0
    2.8452    0.0909   -0.0753 H   0  0  0  0  0  0  0  0  0  0  0  0
    2.1571   -1.0526   -1.2303 H   0  0  0  0  0  0  0  0  0  0  0  0
    3.9773   -0.5312   -2.8553 H   0  0  0  0  0  0  0  0  0  0  0  0
    4.6771    0.6185   -1.7120 H   0  0  0  0  0  0  0  0  0  0  0  0
    1.8431    0.8026   -2.8622 H   0  0  0  0  0  0  0  0  0  0  0  0
    2.5768    1.9549   -1.7467 H   0  0  0  0  0  0  0  0  0  0  0  0
    3.6612    1.2743   -4.5306 H   0  0  0  0  0  0  0  0  0  0  0  0
    4.3367    2.4943   -3.4536 H   0  0  0  0  0  0  0  0  0  0  0  0
    1.4675    2.5525   -4.5369 H   0  0  0  0  0  0  0  0  0  0  0  0
    2.8265    3.3328   -5.3374 H   0  0  0  0  0  0  0  0  0  0  0  0
    2.0150    3.9918   -2.4660 H   0  0  0  0  0  0  0  0  0  0  0  0
    3.2116    4.8298   -3.4510 H   0  0  0  0  0  0  0  0  0  0  0  0
    1.3776    5.3983   -5.1070 H   0  0  0  0  0  0  0  0  0  0  0  0
    0.2089    4.6365   -4.0439 H   0  0  0  0  0  0  0  0  0  0  0  0
    1.9084    7.1129   -3.4804 H   0  0  0  0  0  0  0  0  0  0  0  0
    0.1844    7.0697   -3.7804 H   0  0  0  0  0  0  0  0  0  0  0  0
    1.6822    6.0879   -1.3122 H   0  0  0  0  0  0  0  0  0  0  0  0
    0.5764    7.4395   -1.4288 H   0  0  0  0  0  0  0  0  0  0  0  0
   -0.1430    4.4789   -1.6190 H   0  0  0  0  0  0  0  0  0  0  0  0
   -0.4442    5.5522   -0.2643 H   0  0  0  0  0  0  0  0  0  0  0  0
   -1.7354    5.7757   -3.0351 H   0  0  0  0  0  0  0  0  0  0  0  0
   -1.9360    6.9614   -1.7496 H   0  0  0  0  0  0  0  0  0  0  0  0
   -3.8394    5.4508   -1.8089 H   0  0  0  0  0  0  0  0  0  0  0  0
   -2.9760    5.2661   -0.2857 H   0  0  0  0  0  0  0  0  0  0  0  0
   -1.8968    3.1968   -1.0999 H   0  0  0  0  0  0  0  0  0  0  0  0
   -2.6293    3.3993   -2.6935 H   0  0  0  0  0  0  0  0  0  0  0  0
   -4.1794    3.0012   -0.0745 H   0  0  0  0  0  0  0  0  0  0  0  0
   -4.8999    3.2139   -1.6673 H   0  0  0  0  0  0  0  0  0  0  0  0
   -3.7309    1.1330   -2.4676 H   0  0  0  0  0  0  0  0  0  0  0  0
   -4.9237    0.8760   -1.1982 H   0  0  0  0  0  0  0  0  0  0  0  0
   -3.0980    0.8005    0.5168 H   0  0  0  0  0  0  0  0  0  0  0  0
   -1.8925    0.9995   -0.7570 H   0  0  0  0  0  0  0  0  0  0  0  0
   -2.6654   -1.0902   -1.8512 H   0  0  0  0  0  0  0  0  0  0  0  0
   -3.8872   -1.3145   -0.5966 H   0  0  0  0  0  0  0  0  0  0  0  0
   -2.0843   -1.3880    1.1440 H   0  0  0  0  0  0  0  0  0  0  0  0
   -0.8590   -1.2161   -0.1075 H   0  0  0  0  0  0  0  0  0  0  0  0
   -1.2150   -3.5654    0.6958 H   0  0  0  0  0  0  0  0  0  0  0  0
   -2.8690   -3.5201    0.0974 H   0  0  0  0  0  0  0  0  0  0  0  0
   -2.0667   -3.2815   -2.2322 H   0  0  0  0  0  0  0  0  0  0  0  0
   -0.4089   -3.0730   -1.6765 H   0  0  0  0  0  0  0  0  0  0  0  0
   -0.3855   -5.4016   -0.7953 H   0  0  0  0  0  0  0  0  0  0  0  0
   -0.6775   -5.3128   -2.5280 H   0  0  0  0  0  0  0  0  0  0  0  0
   -2.8028   -5.8196   -0.3829 H   0  0  0  0  0  0  0  0  0  0  0  0
   -2.1696   -6.9743   -1.5598 H   0  0  0  0  0  0  0  0  0  0  0  0
   -3.1492   -5.6053   -2.1115 H   0  0  0  0  0  0  0  0  0  0  0  0
  1  2  1  0
  2  3  1  0
  3  4  1  0
  4  5  1  0
  5  6  1  0
  6  7  1  0
  7  8  1  0
  8  9  1  0
  9 10  1  0
 10 11  1  0
 11 12  1  0
 12 13  1  0
 13 14  1  0
 14 15  1  0
 15 16  1  0
 16 17  1  0
 17 18  1  0
 18 19  1  0
 19 20  1  0
 20 21  1  0
 21 22  1  0
 22 23  1  0
 23 24  1  0
 24 25  1  0
 25 26  1  0
 26 27  1  0
 27 28  1  0
 28 29  1  0
 29 30  1  0
 30 31  1  0
 31 32  1  0
  1 33  1  0
  1 34  1  0
  1 35  1  0
  2 36  1  0
  2 37  1  0
  3 38  1  0
  3 39  1  0
  4 40  1  0
  4 41  1  0
  5 42  1  0
  5 43  1  0
  6 44  1  0
  6 45  1  0
  7 46  1  0
  7 47  1  0
  8 48  1  0
  8 49  1  0
  9 50  1  0
  9 51  1  0
 10 52  1  0
 10 53  1  0
 11 54  1  0
 11 55  1  0
 12 56  1  0
 12 57  1  0
 13 58  1  0
 13 59  1  0
 14 60  1  0
 14 61  1  0
 15 62  1  0
 15 63  1  0
 16 64  1  0
 16 65  1  0
 17 66  1  0
 17 67  1  0
 18 68  1  0
 18 69  1  0
 19 70  1  0
 19 71  1  0
 20 72  1  0
 20 73  1  0
 21 74  1  0
 21 75  1  0
 22 76  1  0
 22 77  1  0
 23 78  1  0
 23 79  1  0
 24 80  1  0
 24 81  1  0
 25 82  1  0
 25 83  1  0
 26 84  1  0
 26 85  1  0
 27 86  1  0
 27 87  1  0
 28 88  1  0
 28 89  1  0
 29 90  1  0
 29 91  1  0
 30 92  1  0
 30 93  1  0
 31 94  1  0
 31 95  1  0
 32 96  1  0
 32 97  1  0
 32 98  1  0
M  END
$$$$
n-alkane C33H68
     RDKit          3D

101100  0  0  0  0  0  0  0  0999 V2000
   -2.5780   -4.8802    2.8118 C   0  0  0  0  0  0  0  0  0  0  0  0
   -1.3142   -5.7165    2.6816 C   0  0  0  0  0  0  0  0  0  0  0  0
   -0.4917   -5.6803    3.9690 C   0  0  0  0  0  0  0  0  0  0  0  0
    0.7113   -6.6258    3.9446 C   0  0  0  0  0  0  0  0  0  0  0  0
    1.7788   -6.3228    2.8888 C   0  0  0  0  0  0  0  0  0  0  0  0
    2.4200   -4.9415    3.0511 C   0  0  0  0  0  0  0  0  0  0  0  0
    3.6680   -4.8048    2.1732 C   0  0  0  0  0  0  0  0  0  0  0  0
    4.4241   -3.4937    2.4076 C   0  0  0  0  0  0  0  0  0  0  0  0
    3.7264   -2.2323    1.8908 C   0  0  0  0  0  0  0  0  0  0  0  0
    3.6706   -2.1661    0.3624 C   0  0  0  0  0  0  0  0  0  0  0  0
    3.1367   -0.8146   -0.1164 C   0  0  0  0  0  0  0  0  0  0  0  0
    3.1476   -0.7207   -1.6434 C   0  0  0  0  0  0  0  0  0  0  0  0
    2.5537    0.6054   -2.1239 C   0  0  0  0  0  0  0  0  0  0  0  0
    2.6016    0.7133   -3.6501 C   0  0  0  0  0  0  0  0  0  0  0  0
    2.1567    2.0847   -4.1668 C   0  0  0  0  0  0  0  0  0  0  0  0
    0.6526    2.3305   -4.0201 C   0  0  0  0  0  0  0  0  0  0  0  0
    0.2039    3.6723   -4.6140 C   0  0  0  0  0  0  0  0  0  0  0  0
    0.8216    4.9209   -3.9704 C   0  0  0  0  0  0  0  0  0  0  0  0
    0.5601    5.0749   -2.4693 C   0  0  0  0  0  0  0  0  0  0  0  0
   -0.8938    5.4337   -2.1489 C   0  0  0  0  0  0  0  0  0  0  0  0
   -1.1540    5.3817   -0.6420 C   0  0  0  0  0  0  0  0  0  0  0  0
   -2.4822    6.0146   -0.2159 C   0  0  0  0  0  0  0  0  0  0  0  0
   -3.7343    5.5193   -0.9401 C   0  0  0  0  0  0  0  0  0  0  0  0
   -4.0280    4.0186   -0.8557 C   0  0  0  0  0  0  0  0  0  0  0  0
   -4.3850    3.5115    0.5469 C   0  0  0  0  0  0  0  0  0  0  0  0
   -3.2276    2.9127    1.3534 C   0  0  0  0  0  0  0  0  0  0  0  0
   -2.6526    1.6390    0.7257 C   0  0  0  0  0  0  0  0  0  0  0  0
   -1.5848    1.0043    1.6202 C   0  0  0  0  0  0  0  0  0  0  0  0
   -0.8851   -0.1878    0.9585 C   0  0  0  0  0  0  0  0  0  0  0  0
   -1.8130   -1.3834    0.7291 C   0  0  0  0  0  0  0  0  0  0  0  0
   -1.0865   -2.6143    0.1773 C   0  0  0  0  0  0  0  0  0  0  0  0
   -0.4481   -2.4395   -1.2019 C   0  0  0  0  0  0  0  0  0  0  0  0
   -1.4417   -2.0864   -2.2971 C   0  0  0  0  0  0  0  0  0  0  0  0
   -3.1473   -4.9042    1.8774 H   0  0  0  0  0  0  0  0  0  0  0  0
   -2.3361   -3.8371    3.0378 H   0  0  0  0  0  0  0  0  0  0  0  0
   -3.2215   -5.2635    3.6101 H   0  0  0  0  0  0  0  0  0  0  0  0
   -0.7218   -5.3369    1.8427 H   0  0  0  0  0  0  0  0  0  0  0  0
   -1.5921   -6.7498    2.4438 H   0  0  0  0  0  0  0  0  0  0  0  0
   -1.1331   -5.9732    4.8100 H   0  0  0  0  0  0  0  0  0  0  0  0
   -0.1646   -4.6547    4.1749 H   0  0  0  0  0  0  0  0  0  0  0  0
    1.1824   -6.6099    4.9355 H   0  0  0  0  0  0  0  0  0  0  0  0
    0.3540   -7.6521    3.7927 H   0  0  0  0  0  0  0  0  0  0  0  0
    1.3588   -6.4205    1.8813 H   0  0  0  0  0  0  0  0  0  0  0  0
    2.5555   -7.0935    2.9741 H   0  0  0  0  0  0  0  0  0  0  0  0
    2.6975   -4.7881    4.1008 H   0  0  0  0  0  0  0  0  0  0  0  0
    1.6928   -4.1663    2.7875 H   0  0  0  0  0  0  0  0  0  0  0  0
    3.4002   -4.9164    1.1171 H   0  0  0  0  0  0  0  0  0  0  0  0
    4.3531   -5.6295    2.4076 H   0  0  0  0  0  0  0  0  0  0  0  0
    4.6096   -3.3768    3.4826 H   0  0  0  0  0  0  0  0  0  0  0  0
    5.4110   -3.5704    1.9342 H   0  0  0  0  0  0  0  0  0  0  0  0
    2.7167   -2.1500    2.3078 H   0  0  0  0  0  0  0  0  0  0  0  0
    4.2872   -1.3647    2.2610 H   0  0  0  0  0  0  0  0  0  0  0  0
    4.6746   -2.3263   -0.0488 H   0  0  0  0  0  0  0  0  0  0  0  0
    3.0287   -2.9651   -0.0252 H   0  0  0  0  0  0  0  0  0  0  0  0
    2.1178   -0.6713    0.2596 H   0  0  0  0  0  0  0  0  0  0  0  0
    3.7496   -0.0061    0.3002 H   0  0  0  0  0  0  0  0  0  0  0  0
    4.1789   -0.8147   -2.0050 H   0  0  0  0  0  0  0  0  0  0  0  0
    2.5806   -1.5548   -2.0734 H   0  0  0  0  0  0  0  0  0  0  0  0
    3.1131    1.4373   -1.6790 H   0  0  0  0  0  0  0  0  0  0  0  0
    1.5187    0.6868   -1.7738 H   0  0  0  0  0  0  0  0  0  0  0  0
    3.6324    0.5429   -3.9852 H   0  0  0  0  0  0  0  0  0  0  0  0
    1.9876   -0.0752   -4.1016 H   0  0  0  0  0  0  0  0  0  0  0  0
    2.7265    2.8620   -3.6459 H   0  0  0  0  0  0  0  0  0  0  0  0
    2.4223    2.1547   -5.2289 H   0  0  0  0  0  0  0  0  0  0  0  0
    0.1113    1.5304   -4.5406 H   0  0  0  0  0  0  0  0  0  0  0  0
    0.3503    2.2691   -2.9701 H   0  0  0  0  0  0  0  0  0  0  0  0
   -0.8888    3.7317   -4.5548 H   0  0  0  0  0  0  0  0  0  0  0  0
    0.4472    3.6825   -5.6841 H   0  0  0  0  0  0  0  0  0  0  0  0
    0.4428    5.8077   -4.4940 H   0  0  0  0  0  0  0  0  0  0  0  0
    1.9047    4.9153   -4.1387 H   0  0  0  0  0  0  0  0  0  0  0  0
    1.2044    5.8784   -2.0899 H   0  0  0  0  0  0  0  0  0  0  0  0
    0.8590    4.1684   -1.9327 H   0  0  0  0  0  0  0  0  0  0  0  0
   -1.5738    4.7407   -2.6535 H   0  0  0  0  0  0  0  0  0  0  0  0
   -1.1081    6.4383   -2.5329 H   0  0  0  0  0  0  0  0  0  0  0  0
   -1.1106    4.3387   -0.3102 H   0  0  0  0  0  0  0  0  0  0  0  0
   -0.3483    5.9059   -0.1128 H   0  0  0  0  0  0  0  0  0  0  0  0
   -2.4110    7.0983   -0.3768 H   0  0  0  0  0  0  0  0  0  0  0  0
   -2.6072    5.8845    0.8651 H   0  0  0  0  0  0  0  0  0  0  0  0
   -3.6670    5.7974   -1.9992 H   0  0  0  0  0  0  0  0  0  0  0  0
   -4.5986    6.0703   -0.5473 H   0  0  0  0  0  0  0  0  0  0  0  0
   -4.9022    3.8387   -1.4960 H   0  0  0  0  0  0  0  0  0  0  0  0
   -3.2141    3.4447   -1.3056 H   0  0  0  0  0  0  0  0  0  0  0  0
   -4.8477    4.3178    1.1287 H   0  0  0  0  0  0  0  0  0  0  0  0
   -5.1545    2.7351    0.4432 H   0  0  0  0  0  0  0  0  0  0  0  0
   -3.6050    2.6709    2.3552 H   0  0  0  0  0  0  0  0  0  0  0  0
   -2.4343    3.6520    1.4951 H   0  0  0  0  0  0  0  0  0  0  0  0
   -2.2068    1.8641   -0.2485 H   0  0  0  0  0  0  0  0  0  0  0  0
   -3.4677    0.9273    0.5547 H   0  0  0  0  0  0  0  0  0  0  0  0
   -2.0323    0.6911    2.5711 H   0  0  0  0  0  0  0  0  0  0  0  0
   -0.8239    1.7574    1.8598 H   0  0  0  0  0  0  0  0  0  0  0  0
   -0.4459    0.1405    0.0100 H   0  0  0  0  0  0  0  0  0  0  0  0
   -0.0548   -0.5001    1.6037 H   0  0  0  0  0  0  0  0  0  0  0  0
   -2.2768   -1.6594    1.6840 H   0  0  0  0  0  0  0  0  0  0  0  0
   -2.6324   -1.1119    0.0562 H   0  0  0  0  0  0  0  0  0  0  0  0
   -1.8013   -3.4447    0.1291 H   0  0  0  0  0  0  0  0  0  0  0  0
   -0.3066   -2.9168    0.8872 H   0  0  0  0  0  0  0  0  0  0  0  0
    0.0518   -3.3775   -1.4721 H   0  0  0  0  0  0  0  0  0  0  0  0
    0.3307   -1.6738   -1.1635 H   0  0  0  0  0  0  0  0  0  0  0  0
   -1.8735   -1.0934   -2.1413 H   0  0  0  0  0  0  0  0  0  0  0  0
   -2.2554   -2.8170   -2.3410 H   0  0  0  0  0  0  0  0  0  0  0  0
   -0.9398   -2.0785   -3.2701 H   0  0  0  0  0  0  0  0  0  0  0  0
  1  2  1  0
  2  3  1  0
  3  4  1  0
  4  5  1  0
  5  6  1  0
  6  7  1  0
  7  8  1  0
  8  9  1  0
  9 10  1  0
 10 11  1  0
 11 12  1  0
 12 13  1  0
 13 14  1  0
 14 15  1  0
 15 16  1  0
 16 17  1  0
 17 18  1  0
 18 19  1  0
 19 20  1  0
 20 21  1  0
 21 22  1  0
 22 23  1  0
 23 24  1  0
 24 25  1  0
 25 26  1  0
 26 27  1  0
 27 28  1  0
 28 29  1  0
 29 30  1  0
 30 31  1  0
 31 32  1  0
 32 33  1  0
  1 34  1  0
  1 35  1  0
  1 36  1  0
  2 37  1  0
  2 38  1  0
  3 39  1  0
  3 40  1  0
  4 41  1  0
  4 42  1  0
  5 43  1  0
  5 44  1  0
  6 45  1  0
  6 46  1  0
  7 47  1  0
  7 48  1  0
  8 49  1  0
  8 50  1  0
  9 51  1  0
  9 52  1  0
 10 53  1  0
 10 54  1  0
 11 55  1  0
 11 56  1  0
 12 57  1  0
 12 58  1  0
 13 59  1  0
 13 60  1  0
 14 61  1  0
 14 62  1  0
 15 63  1  0
 15 64  1  0
 16 65  1  0
 16 66  1  0
 17 67  1  0
 17 68  1  0
 18 69  1  0
 18 70  1  0
 19 71  1  0
 19 72  1  0
 20 73  1  0
 20 74  1  0
 21 75  1  0
 21 76  1  0
 22 77  1  0
 22 78  1  0
 23 79  1  0
 23 80  1  0
 24 81  1  0
 24 82  1  0
 25 83  1  0
 25 84  1  0
 26 85  1  0
 26 86  1  0
 27 87  1  0
 27 88  1  0
 28 89  1  0
 28 90  1  0
 29 91  1  0
 29 92  1  0
 30 93  1  0
 30 94  1  0
 31 95  1  0
 31 96  1  0
 32 97  1  0
 32 98  1  0
 33 99  1  0
 33100  1  0
 33101  1  0
M  END
$$$$
n-alkane C34H70
     RDKit          3D

104103  0  0  0  0  0  0  0  0999 V2000
   -2.0260   -1.7170    6.1317 C   0  0  0  0  0  0  0  0  0  0  0  0
   -1.0165   -1.7388    4.9955 C   0  0  0  0  0  0  0  0  0  0  0  0
    0.4142   -1.8722    5.5171 C   0  0  0  0  0  0  0  0  0  0  0  0
    1.4238   -1.8770    4.3665 C   0  0  0  0  0  0  0  0  0  0  0  0
    2.8558   -2.0280    4.8808 C   0  0  0  0  0  0  0  0  0  0  0  0
    3.9277   -1.9157    3.7894 C   0  0  0  0  0  0  0  0  0  0  0  0
    4.3667   -3.2441    3.1680 C   0  0  0  0  0  0  0  0  0  0  0  0
    3.3893   -3.9568    2.2297 C   0  0  0  0  0  0  0  0  0  0  0  0
    3.1720   -3.2718    0.8735 C   0  0  0  0  0  0  0  0  0  0  0  0
    1.9685   -2.3295    0.8473 C   0  0  0  0  0  0  0  0  0  0  0  0
    1.6257   -1.8076   -0.5511 C   0  0  0  0  0  0  0  0  0  0  0  0
    2.7153   -0.9210   -1.1587 C   0  0  0  0  0  0  0  0  0  0  0  0
    2.3106   -0.3041   -2.5030 C   0  0  0  0  0  0  0  0  0  0  0  0
    1.1020    0.6374   -2.4609 C   0  0  0  0  0  0  0  0  0  0  0  0
    1.2437    1.8402   -1.5238 C   0  0  0  0  0  0  0  0  0  0  0  0
    2.3654    2.8219   -1.8755 C   0  0  0  0  0  0  0  0  0  0  0  0
    2.2899    3.4345   -3.2788 C   0  0  0  0  0  0  0  0  0  0  0  0
    0.9897    4.1765   -3.6106 C   0  0  0  0  0  0  0  0  0  0  0  0
    0.7830    5.4459   -2.7768 C   0  0  0  0  0  0  0  0  0  0  0  0
   -0.5024    6.1939   -3.1588 C   0  0  0  0  0  0  0  0  0  0  0  0
   -1.6702    5.9984   -2.1840 C   0  0  0  0  0  0  0  0  0  0  0  0
   -2.1236    4.5459   -2.0361 C   0  0  0  0  0  0  0  0  0  0  0  0
   -3.3599    4.4334   -1.1394 C   0  0  0  0  0  0  0  0  0  0  0  0
   -3.8308    2.9891   -0.9347 C   0  0  0  0  0  0  0  0  0  0  0  0
   -2.8588    2.1525   -0.0983 C   0  0  0  0  0  0  0  0  0  0  0  0
   -3.4079    0.7492    0.1711 C   0  0  0  0  0  0  0  0  0  0  0  0
   -2.4199   -0.0758    0.9997 C   0  0  0  0  0  0  0  0  0  0  0  0
   -2.9517   -1.4579    1.3892 C   0  0  0  0  0  0  0  0  0  0  0  0
   -3.3154   -2.3874    0.2273 C   0  0  0  0  0  0  0  0  0  0  0  0
   -2.1354   -2.6892   -0.6993 C   0  0  0  0  0  0  0  0  0  0  0  0
   -2.5113   -3.7288   -1.7583 C   0  0  0  0  0  0  0  0  0  0  0  0
   -1.3352   -4.1298   -2.6537 C   0  0  0  0  0  0  0  0  0  0  0  0
   -0.8722   -3.0073   -3.5829 C   0  0  0  0  0  0  0  0  0  0  0  0
    0.2572   -3.4688   -4.4909 C   0  0  0  0  0  0  0  0  0  0  0  0
   -1.8438   -0.8711    6.8022 H   0  0  0  0  0  0  0  0  0  0  0  0
   -3.0415   -1.6229    5.7342 H   0  0  0  0  0  0  0  0  0  0  0  0
   -1.9752   -2.6390    6.7194 H   0  0  0  0  0  0  0  0  0  0  0  0
   -1.2470   -2.5764    4.3271 H   0  0  0  0  0  0  0  0  0  0  0  0
   -1.1156   -0.8181    4.4087 H   0  0  0  0  0  0  0  0  0  0  0  0
    0.5099   -2.7997    6.0947 H   0  0  0  0  0  0  0  0  0  0  0  0
    0.6364   -1.0419    6.1983 H   0  0  0  0  0  0  0  0  0  0  0  0
    1.3322   -0.9410    3.8026 H   0  0  0  0  0  0  0  0  0  0  0  0
    1.1770   -2.6944    3.6852 H   0  0  0  0  0  0  0  0  0  0  0  0
    3.0368   -1.2256    5.6080 H   0  0  0  0  0  0  0  0  0  0  0  0
    2.9647   -2.9715    5.4286 H   0  0  0  0  0  0  0  0  0  0  0  0
    4.8219   -1.4959    4.2707 H   0  0  0  0  0  0  0  0  0  0  0  0
    3.6451   -1.1888    3.0234 H   0  0  0  0  0  0  0  0  0  0  0  0
    5.3020   -3.0695    2.6201 H   0  0  0  0  0  0  0  0  0  0  0  0
    4.6264   -3.9363    3.9795 H   0  0  0  0  0  0  0  0  0  0  0  0
    3.8322   -4.9400    2.0186 H   0  0  0  0  0  0  0  0  0  0  0  0
    2.4401   -4.1693    2.7290 H   0  0  0  0  0  0  0  0  0  0  0  0
    2.9997   -4.0570    0.1260 H   0  0  0  0  0  0  0  0  0  0  0  0
    4.0838   -2.7464    0.5696 H   0  0  0  0  0  0  0  0  0  0  0  0
    2.1352   -1.4747    1.5070 H   0  0  0  0  0  0  0  0  0  0  0  0
    1.0889   -2.8612    1.2303 H   0  0  0  0  0  0  0  0  0  0  0  0
    0.6942   -1.2396   -0.4620 H   0  0  0  0  0  0  0  0  0  0  0  0
    1.4208   -2.6514   -1.2204 H   0  0  0  0  0  0  0  0  0  0  0  0
    2.9972   -0.1328   -0.4521 H   0  0  0  0  0  0  0  0  0  0  0  0
    3.6172   -1.5210   -1.3273 H   0  0  0  0  0  0  0  0  0  0  0  0
    2.0928   -1.1134   -3.2110 H   0  0  0  0  0  0  0  0  0  0  0  0
    3.1734    0.2324   -2.9149 H   0  0  0  0  0  0  0  0  0  0  0  0
    0.8965    0.9857   -3.4798 H   0  0  0  0  0  0  0  0  0  0  0  0
    0.2090    0.0750   -2.1657 H   0  0  0  0  0  0  0  0  0  0  0  0
    1.3900    1.4920   -0.4948 H   0  0  0  0  0  0  0  0  0  0  0  0
    0.2917    2.3776   -1.5116 H   0  0  0  0  0  0  0  0  0  0  0  0
    2.3676    3.6259   -1.1300 H   0  0  0  0  0  0  0  0  0  0  0  0
    3.3338    2.3187   -1.7683 H   0  0  0  0  0  0  0  0  0  0  0  0
    2.4395    2.6446   -4.0244 H   0  0  0  0  0  0  0  0  0  0  0  0
    3.1346    4.1241   -3.4014 H   0  0  0  0  0  0  0  0  0  0  0  0
    0.1330    3.5035   -3.5098 H   0  0  0  0  0  0  0  0  0  0  0  0
    1.0288    4.4598   -4.6704 H   0  0  0  0  0  0  0  0  0  0  0  0
    0.7900    5.2217   -1.7051 H   0  0  0  0  0  0  0  0  0  0  0  0
    1.6355    6.1119   -2.9614 H   0  0  0  0  0  0  0  0  0  0  0  0
   -0.2769    7.2680   -3.1776 H   0  0  0  0  0  0  0  0  0  0  0  0
   -0.8199    5.9308   -4.1748 H   0  0  0  0  0  0  0  0  0  0  0  0
   -1.3867    6.3927   -1.2001 H   0  0  0  0  0  0  0  0  0  0  0  0
   -2.5128    6.6077   -2.5337 H   0  0  0  0  0  0  0  0  0  0  0  0
   -1.3078    3.9643   -1.6025 H   0  0  0  0  0  0  0  0  0  0  0  0
   -2.3460    4.1226   -3.0225 H   0  0  0  0  0  0  0  0  0  0  0  0
   -3.1574    4.8937   -0.1647 H   0  0  0  0  0  0  0  0  0  0  0  0
   -4.1801    5.0031   -1.5935 H   0  0  0  0  0  0  0  0  0  0  0  0
   -3.9924    2.5111   -1.9083 H   0  0  0  0  0  0  0  0  0  0  0  0
   -4.8038    3.0151   -0.4286 H   0  0  0  0  0  0  0  0  0  0  0  0
   -1.9004    2.0601   -0.6183 H   0  0  0  0  0  0  0  0  0  0  0  0
   -2.6646    2.6596    0.8545 H   0  0  0  0  0  0  0  0  0  0  0  0
   -3.6033    0.2525   -0.7858 H   0  0  0  0  0  0  0  0  0  0  0  0
   -4.3637    0.8228    0.7034 H   0  0  0  0  0  0  0  0  0  0  0  0
   -2.1864    0.4684    1.9238 H   0  0  0  0  0  0  0  0  0  0  0  0
   -1.4726   -0.1760    0.4579 H   0  0  0  0  0  0  0  0  0  0  0  0
   -3.8385   -1.3312    2.0227 H   0  0  0  0  0  0  0  0  0  0  0  0
   -2.1972   -1.9536    2.0122 H   0  0  0  0  0  0  0  0  0  0  0  0
   -3.6878   -3.3280    0.6525 H   0  0  0  0  0  0  0  0  0  0  0  0
   -4.1439   -1.9631   -0.3511 H   0  0  0  0  0  0  0  0  0  0  0  0
   -1.8123   -1.7659   -1.1899 H   0  0  0  0  0  0  0  0  0  0  0  0
   -1.2912   -3.0609   -0.1068 H   0  0  0  0  0  0  0  0  0  0  0  0
   -2.8806   -4.6315   -1.2559 H   0  0  0  0  0  0  0  0  0  0  0  0
   -3.3350   -3.3509   -2.3759 H   0  0  0  0  0  0  0  0  0  0  0  0
   -1.6448   -4.9891   -3.2617 H   0  0  0  0  0  0  0  0  0  0  0  0
   -0.4978   -4.4690   -2.0318 H   0  0  0  0  0  0  0  0  0  0  0  0
   -0.5229   -2.1492   -3.0014 H   0  0  0  0  0  0  0  0  0  0  0  0
   -1.7115   -2.6634   -4.1982 H   0  0  0  0  0  0  0  0  0  0  0  0
   -0.0615   -4.3057   -5.1204 H   0  0  0  0  0  0  0  0  0  0  0  0
    1.1247   -3.7890   -3.9049 H   0  0  0  0  0  0  0  0  0  0  0  0
    0.5737   -2.6515   -5.1465 H   0  0  0  0  0  0  0  0  0  0  0  0
  1  2  1  0
  2  3  1  0
  3  4  1  0
  4  5  1  0
  5  6  1  0
  6  7  1  0
  7  8  1  0
  8  9  1  0
  9 10  1  0
 10 11  1  0
 11 12  1  0
 12 13  1  0
 13 14  1  0
 14 15  1  0
 15 16  1  0
 16 17  1  0
 17 18  1  0
 18 19  1  0
 19 20  1  0
 20 21  1  0
 21 22  1  0
 22 23  1  0
 23 24  1  0
 24 25  1  0
 25 26  1  0
 26 27  1  0
 27 28  1  0
 28 29  1  0
 29 30  1  0
 30 31  1  0
 31 32  1  0
 32 33  1  0
 33 34  1  0
  1 35  1  0
  1 36  1  0
  1 37  1  0
  2 38  1  0
  2 39  1  0
  3 40  1  0
  3 41  1  0
  4 42  1  0
  4 43  1  0
  5 44  1  0
  5 45  1  0
  6 46  1  0
  6 47  1  0
  7 48  1  0
  7 49  1  0
  8 50  1  0
  8 51  1  0
  9 52  1  0
  9 53  1  0
 10 54  1  0
 10 55  1  0
 11 56  1  0
 11 57  1  0
 12 58  1  0
 12 59  1  0
 13 60  1  0
 13 61  1  0
 14 62  1  0
 14 63  1  0
 15 64  1  0
 15 65  1  0
 16 66  1  0
 16 67  1  0
 17 68  1  0
 17 69  1  0
 18 70  1  0
 18 71  1  0
 19 72  1  0
 19 73  1  0
 20 74  1  0
 20 75  1  0
 21 76  1  0
 21 77  1  0
 22 78  1  0
 22 79  1  0
 23 80  1  0
 23 81  1  0
 24 82  1  0
 24 83  1  0
 25 84  1  0
 25 85  1  0
 26 86  1  0
 26 87  1  0
 27 88  1  0
 27 89  1  0
 28 90  1  0
 28 91  1  0
 29 92  1  0
 29 93  1  0
 30 94  1  0
 30 95  1  0
 31 96  1  0
 31 97  1  0
 32 98  1  0
 32 99  1  0
 33100  1  0
 33101  1  0
 34102  1  0
 34103  1  0
 34104  1  0
M  END
$$$$
n-alkane C35H72
     RDKit          3D

107106  0  0  0  0  0  0  0  0999 V2000
   -0.6318    1.6375    7.0012 C   0  0  0  0  0  0  0  0  0  0  0  0
   -0.5633    2.1032    5.5551 C   0  0  0  0  0  0  0  0  0  0  0  0
    0.8068    1.8868    4.9100 C   0  0  0  0  0  0  0  0  0  0  0  0
    1.1760    0.4099    4.7463 C   0  0  0  0  0  0  0  0  0  0  0  0
    2.4983    0.2581    3.9901 C   0  0  0  0  0  0  0  0  0  0  0  0
    2.9869   -1.1909    3.9053 C   0  0  0  0  0  0  0  0  0  0  0  0
    2.0644   -2.1626    3.1617 C   0  0  0  0  0  0  0  0  0  0  0  0
    1.7010   -1.7720    1.7261 C   0  0  0  0  0  0  0  0  0  0  0  0
    2.9199   -1.5820    0.8189 C   0  0  0  0  0  0  0  0  0  0  0  0
    2.4919   -1.3166   -0.6251 C   0  0  0  0  0  0  0  0  0  0  0  0
    3.6553   -1.0262   -1.5716 C   0  0  0  0  0  0  0  0  0  0  0  0
    4.5116    0.2072   -1.2577 C   0  0  0  0  0  0  0  0  0  0  0  0
    3.7887    1.5580   -1.3531 C   0  0  0  0  0  0  0  0  0  0  0  0
    3.1565    2.0156   -0.0355 C   0  0  0  0  0  0  0  0  0  0  0  0
    2.6994    3.4796   -0.0427 C   0  0  0  0  0  0  0  0  0  0  0  0
    1.6578    3.7966   -1.1190 C   0  0  0  0  0  0  0  0  0  0  0  0
    1.0897    5.2151   -1.0164 C   0  0  0  0  0  0  0  0  0  0  0  0
    0.3270    5.5773    0.2659 C   0  0  0  0  0  0  0  0  0  0  0  0
   -0.9891    4.8209    0.4816 C   0  0  0  0  0  0  0  0  0  0  0  0
   -0.8254    3.5218    1.2715 C   0  0  0  0  0  0  0  0  0  0  0  0
   -2.1702    2.8198    1.4952 C   0  0  0  0  0  0  0  0  0  0  0  0
   -1.9965    1.3479    1.8876 C   0  0  0  0  0  0  0  0  0  0  0  0
   -2.1537    0.3590    0.7242 C   0  0  0  0  0  0  0  0  0  0  0  0
   -1.2294    0.6284   -0.4633 C   0  0  0  0  0  0  0  0  0  0  0  0
   -1.3149   -0.4845   -1.5098 C   0  0  0  0  0  0  0  0  0  0  0  0
   -0.5212   -0.1223   -2.7686 C   0  0  0  0  0  0  0  0  0  0  0  0
   -0.3545   -1.2969   -3.7369 C   0  0  0  0  0  0  0  0  0  0  0  0
   -1.6809   -1.7962   -4.3137 C   0  0  0  0  0  0  0  0  0  0  0  0
   -1.5051   -2.8647   -5.3976 C   0  0  0  0  0  0  0  0  0  0  0  0
   -0.7881   -4.1455   -4.9571 C   0  0  0  0  0  0  0  0  0  0  0  0
   -1.3867   -4.8620   -3.7428 C   0  0  0  0  0  0  0  0  0  0  0  0
   -2.8392   -5.2994   -3.9478 C   0  0  0  0  0  0  0  0  0  0  0  0
   -3.3495   -6.0936   -2.7425 C   0  0  0  0  0  0  0  0  0  0  0  0
   -4.7730   -6.6249   -2.9246 C   0  0  0  0  0  0  0  0  0  0  0  0
   -5.8256   -5.5292   -2.9930 C   0  0  0  0  0  0  0  0  0  0  0  0
   -0.5229    0.5518    7.0785 H   0  0  0  0  0  0  0  0  0  0  0  0
    0.1513    2.1086    7.6036 H   0  0  0  0  0  0  0  0  0  0  0  0
   -1.6001    1.9045    7.4363 H   0  0  0  0  0  0  0  0  0  0  0  0
   -1.3376    1.5922    4.9718 H   0  0  0  0  0  0  0  0  0  0  0  0
   -0.7971    3.1741    5.5223 H   0  0  0  0  0  0  0  0  0  0  0  0
    1.5759    2.3974    5.5024 H   0  0  0  0  0  0  0  0  0  0  0  0
    0.8019    2.3646    3.9231 H   0  0  0  0  0  0  0  0  0  0  0  0
    1.2675   -0.0644    5.7297 H   0  0  0  0  0  0  0  0  0  0  0  0
    0.3741   -0.1059    4.2063 H   0  0  0  0  0  0  0  0  0  0  0  0
    3.2713    0.8454    4.5024 H   0  0  0  0  0  0  0  0  0  0  0  0
    2.4035    0.6861    2.9856 H   0  0  0  0  0  0  0  0  0  0  0  0
    3.9767   -1.1983    3.4336 H   0  0  0  0  0  0  0  0  0  0  0  0
    3.1395   -1.5734    4.9226 H   0  0  0  0  0  0  0  0  0  0  0  0
    1.1376   -2.2945    3.7330 H   0  0  0  0  0  0  0  0  0  0  0  0
    2.5489   -3.1473    3.1456 H   0  0  0  0  0  0  0  0  0  0  0  0
    1.0969   -0.8570    1.7303 H   0  0  0  0  0  0  0  0  0  0  0  0
    1.0609   -2.5607    1.3104 H   0  0  0  0  0  0  0  0  0  0  0  0
    3.5528   -2.4767    0.8533 H   0  0  0  0  0  0  0  0  0  0  0  0
    3.5194   -0.7462    1.1897 H   0  0  0  0  0  0  0  0  0  0  0  0
    1.7752   -0.4942   -0.6607 H   0  0  0  0  0  0  0  0  0  0  0  0
    1.9565   -2.1978   -1.0013 H   0  0  0  0  0  0  0  0  0  0  0  0
    4.3149   -1.9030   -1.5919 H   0  0  0  0  0  0  0  0  0  0  0  0
    3.2547   -0.9249   -2.5883 H   0  0  0  0  0  0  0  0  0  0  0  0
    5.3190    0.2196   -2.0022 H   0  0  0  0  0  0  0  0  0  0  0  0
    5.0096    0.1002   -0.2881 H   0  0  0  0  0  0  0  0  0  0  0  0
    3.0387    1.5244   -2.1512 H   0  0  0  0  0  0  0  0  0  0  0  0
    4.5308    2.3106   -1.6497 H   0  0  0  0  0  0  0  0  0  0  0  0
    3.8838    1.8956    0.7771 H   0  0  0  0  0  0  0  0  0  0  0  0
    2.2988    1.3873    0.2181 H   0  0  0  0  0  0  0  0  0  0  0  0
    2.2949    3.6983    0.9512 H   0  0  0  0  0  0  0  0  0  0  0  0
    3.5702    4.1328   -0.1772 H   0  0  0  0  0  0  0  0  0  0  0  0
    2.1292    3.7030   -2.1052 H   0  0  0  0  0  0  0  0  0  0  0  0
    0.8471    3.0624   -1.1073 H   0  0  0  0  0  0  0  0  0  0  0  0
    1.9180    5.9267   -1.1297 H   0  0  0  0  0  0  0  0  0  0  0  0
    0.4284    5.3831   -1.8761 H   0  0  0  0  0  0  0  0  0  0  0  0
    0.0769    6.6438    0.1853 H   0  0  0  0  0  0  0  0  0  0  0  0
    0.9732    5.4922    1.1461 H   0  0  0  0  0  0  0  0  0  0  0  0
   -1.6692    5.4736    1.0440 H   0  0  0  0  0  0  0  0  0  0  0  0
   -1.4716    4.6228   -0.4829 H   0  0  0  0  0  0  0  0  0  0  0  0
   -0.3722    3.7399    2.2461 H   0  0  0  0  0  0  0  0  0  0  0  0
   -0.1362    2.8530    0.7577 H   0  0  0  0  0  0  0  0  0  0  0  0
   -2.6919    3.3438    2.3062 H   0  0  0  0  0  0  0  0  0  0  0  0
   -2.8119    2.9024    0.6102 H   0  0  0  0  0  0  0  0  0  0  0  0
   -1.0269    1.1910    2.3740 H   0  0  0  0  0  0  0  0  0  0  0  0
   -2.7605    1.0962    2.6340 H   0  0  0  0  0  0  0  0  0  0  0  0
   -1.9700   -0.6520    1.1088 H   0  0  0  0  0  0  0  0  0  0  0  0
   -3.1953    0.3771    0.3791 H   0  0  0  0  0  0  0  0  0  0  0  0
   -1.4961    1.5822   -0.9321 H   0  0  0  0  0  0  0  0  0  0  0  0
   -0.1954    0.7112   -0.1121 H   0  0  0  0  0  0  0  0  0  0  0  0
   -0.9295   -1.4164   -1.0786 H   0  0  0  0  0  0  0  0  0  0  0  0
   -2.3647   -0.6564   -1.7731 H   0  0  0  0  0  0  0  0  0  0  0  0
    0.4774    0.2304   -2.4853 H   0  0  0  0  0  0  0  0  0  0  0  0
   -1.0108    0.7136   -3.2831 H   0  0  0  0  0  0  0  0  0  0  0  0
    0.1663   -2.1112   -3.2206 H   0  0  0  0  0  0  0  0  0  0  0  0
    0.2966   -0.9754   -4.5589 H   0  0  0  0  0  0  0  0  0  0  0  0
   -2.2204   -0.9488   -4.7550 H   0  0  0  0  0  0  0  0  0  0  0  0
   -2.3205   -2.1868   -3.5155 H   0  0  0  0  0  0  0  0  0  0  0  0
   -0.9466   -2.4302   -6.2366 H   0  0  0  0  0  0  0  0  0  0  0  0
   -2.4935   -3.1215   -5.7976 H   0  0  0  0  0  0  0  0  0  0  0  0
   -0.7746   -4.8401   -5.8070 H   0  0  0  0  0  0  0  0  0  0  0  0
    0.2624   -3.9166   -4.7418 H   0  0  0  0  0  0  0  0  0  0  0  0
   -0.7720   -5.7473   -3.5359 H   0  0  0  0  0  0  0  0  0  0  0  0
   -1.3125   -4.2237   -2.8548 H   0  0  0  0  0  0  0  0  0  0  0  0
   -2.9137   -5.9150   -4.8521 H   0  0  0  0  0  0  0  0  0  0  0  0
   -3.4698   -4.4178   -4.0990 H   0  0  0  0  0  0  0  0  0  0  0  0
   -3.3022   -5.4703   -1.8413 H   0  0  0  0  0  0  0  0  0  0  0  0
   -2.6846   -6.9493   -2.5701 H   0  0  0  0  0  0  0  0  0  0  0  0
   -4.8287   -7.2431   -3.8279 H   0  0  0  0  0  0  0  0  0  0  0  0
   -5.0091   -7.2804   -2.0777 H   0  0  0  0  0  0  0  0  0  0  0  0
   -5.7088   -4.9148   -3.8903 H   0  0  0  0  0  0  0  0  0  0  0  0
   -5.7706   -4.8760   -2.1165 H   0  0  0  0  0  0  0  0  0  0  0  0
   -6.8266   -5.9715   -3.0237 H   0  0  0  0  0  0  0  0  0  0  0  0
  1  2  1  0
  2  3  1  0
  3  4  1  0
  4  5  1  0
  5  6  1  0
  6  7  1  0
  7  8  1  0
  8  9  1  0
  9 10  1  0
 10 11  1  0
 11 12  1  0
 12 13  1  0
 13 14  1  0
 14 15  1  0
 15 16  1  0
 16 17  1  0
 17 18  1  0
 18 19  1  0
 19 20  1  0
 20 21  1  0
 21 22  1  0
 22 23  1  0
 23 24  1  0
 24 25  1  0
 25 26  1  0
 26 27  1  0
 27 28  1  0
 28 29  1  0
 29 30  1  0
 30 31  1  0
 31 32  1  0
 32 33  1  0
 33 34  1  0
 34 35  1  0
  1 36  1  0
  1 37  1  0
  1 38  1  0
  2 39  1  0
  2 40  1  0
  3 41  1  0
  3 42  1  0
  4 43  1  0
  4 44  1  0
  5 45  1  0
  5 46  1  0
  6 47  1  0
  6 48  1  0
  7 49  1  0
  7 50  1  0
  8 51  1  0
  8 52  1  0
  9 53  1  0
  9 54  1  0
 10 55  1  0
 10 56  1  0
 11 57  1  0
 11 58  1  0
 12 59  1  0
 12 60  1  0
 13 61  1  0
 13 62  1  0
 14 63  1  0
 14 64  1  0
 15 65  1  0
 15 66  1  0
 16 67  1  0
 16 68  1  0
 17 69  1  0
 17 70  1  0
 18 71  1  0
 18 72  1  0
 19 73  1  0
 19 74  1  0
 20 75  1  0
 20 76  1  0
 21 77  1  0
 21 78  1  0
 22 79  1  0
 22 80  1  0
 23 81  1  0
 23 82  1  0
 24 83  1  0
 24 84  1  0
 25 85  1  0
 25 86  1  0
 26 87  1  0
 26 88  1  0
 27 89  1  0
 27 90  1  0
 28 91  1  0
 28 92  1  0
 29 93  1  0
 29 94  1  0
 30 95  1  0
 30 96  1  0
 31 97  1  0
 31 98  1  0
 32 99  1  0
 32100  1  0
 33101  1  0
 33102  1  0
 34103  1  0
 34104  1  0
 35105  1  0
 35106  1  0
 35107  1  0
M  END
$$$$
n-alkane C36H74
     RDKit          3D

110109  0  0  0  0  0  0  0  0999 V2000
    6.8070    2.1809    6.7397 C   0  0  0  0  0  0  0  0  0  0  0  0
    6.8749    1.0864    5.6877 C   0  0  0  0  0  0  0  0  0  0  0  0
    5.5414    0.3502    5.5565 C   0  0  0  0  0  0  0  0  0  0  0  0
    5.6163   -0.7467    4.4925 C   0  0  0  0  0  0  0  0  0  0  0  0
    4.2684   -1.4525    4.3282 C   0  0  0  0  0  0  0  0  0  0  0  0
    4.3140   -2.6259    3.3445 C   0  0  0  0  0  0  0  0  0  0  0  0
    4.7129   -2.2785    1.9073 C   0  0  0  0  0  0  0  0  0  0  0  0
    3.8350   -1.2003    1.2669 C   0  0  0  0  0  0  0  0  0  0  0  0
    4.1468   -1.0482   -0.2238 C   0  0  0  0  0  0  0  0  0  0  0  0
    3.3350    0.0608   -0.9008 C   0  0  0  0  0  0  0  0  0  0  0  0
    1.8447   -0.2706   -1.0192 C   0  0  0  0  0  0  0  0  0  0  0  0
    1.0750    0.7374   -1.8789 C   0  0  0  0  0  0  0  0  0  0  0  0
    0.9120    2.1033   -1.2089 C   0  0  0  0  0  0  0  0  0  0  0  0
    0.2170    3.0974   -2.1442 C   0  0  0  0  0  0  0  0  0  0  0  0
   -0.0201    4.4567   -1.4717 C   0  0  0  0  0  0  0  0  0  0  0  0
   -1.5017    4.8318   -1.3697 C   0  0  0  0  0  0  0  0  0  0  0  0
   -2.2818    3.9508   -0.3912 C   0  0  0  0  0  0  0  0  0  0  0  0
   -3.7742    4.2903   -0.4242 C   0  0  0  0  0  0  0  0  0  0  0  0
   -4.5730    3.3894    0.5197 C   0  0  0  0  0  0  0  0  0  0  0  0
   -6.0877    3.5449    0.3746 C   0  0  0  0  0  0  0  0  0  0  0  0
   -6.6980    3.1979   -0.9922 C   0  0  0  0  0  0  0  0  0  0  0  0
   -6.5102    1.7457   -1.4507 C   0  0  0  0  0  0  0  0  0  0  0  0
   -5.2410    1.5249   -2.2770 C   0  0  0  0  0  0  0  0  0  0  0  0
   -5.1134    0.0753   -2.7517 C   0  0  0  0  0  0  0  0  0  0  0  0
   -3.7159   -0.1801   -3.3204 C   0  0  0  0  0  0  0  0  0  0  0  0
   -3.5505   -1.6200   -3.8079 C   0  0  0  0  0  0  0  0  0  0  0  0
   -2.0801   -1.9209   -4.1086 C   0  0  0  0  0  0  0  0  0  0  0  0
   -1.8865   -3.3434   -4.6383 C   0  0  0  0  0  0  0  0  0  0  0  0
   -0.4120   -3.7275   -4.8173 C   0  0  0  0  0  0  0  0  0  0  0  0
    0.4090   -3.7702   -3.5231 C   0  0  0  0  0  0  0  0  0  0  0  0
    0.0004   -4.9090   -2.5841 C   0  0  0  0  0  0  0  0  0  0  0  0
    0.5719   -4.7446   -1.1718 C   0  0  0  0  0  0  0  0  0  0  0  0
   -0.2251   -3.7302   -0.3440 C   0  0  0  0  0  0  0  0  0  0  0  0
    0.3252   -3.6053    1.0778 C   0  0  0  0  0  0  0  0  0  0  0  0
   -0.4803   -2.5910    1.8911 C   0  0  0  0  0  0  0  0  0  0  0  0
    0.0710   -2.4328    3.2987 C   0  0  0  0  0  0  0  0  0  0  0  0
    6.5787    1.7625    7.7251 H   0  0  0  0  0  0  0  0  0  0  0  0
    7.7684    2.7013    6.8062 H   0  0  0  0  0  0  0  0  0  0  0  0
    6.0375    2.9201    6.4917 H   0  0  0  0  0  0  0  0  0  0  0  0
    7.6675    0.3770    5.9571 H   0  0  0  0  0  0  0  0  0  0  0  0
    7.1503    1.5329    4.7250 H   0  0  0  0  0  0  0  0  0  0  0  0
    4.7526    1.0658    5.2948 H   0  0  0  0  0  0  0  0  0  0  0  0
    5.2694   -0.0945    6.5209 H   0  0  0  0  0  0  0  0  0  0  0  0
    5.9272   -0.3001    3.5398 H   0  0  0  0  0  0  0  0  0  0  0  0
    6.3832   -1.4783    4.7748 H   0  0  0  0  0  0  0  0  0  0  0  0
    3.9432   -1.8387    5.3042 H   0  0  0  0  0  0  0  0  0  0  0  0
    3.5039   -0.7310    4.0138 H   0  0  0  0  0  0  0  0  0  0  0  0
    5.0110   -3.3828    3.7249 H   0  0  0  0  0  0  0  0  0  0  0  0
    3.3258   -3.1018    3.3302 H   0  0  0  0  0  0  0  0  0  0  0  0
    4.6528   -3.1972    1.3109 H   0  0  0  0  0  0  0  0  0  0  0  0
    5.7620   -1.9618    1.8780 H   0  0  0  0  0  0  0  0  0  0  0  0
    2.7824   -1.4563    1.4083 H   0  0  0  0  0  0  0  0  0  0  0  0
    4.0063   -0.2406    1.7641 H   0  0  0  0  0  0  0  0  0  0  0  0
    3.9735   -1.9995   -0.7410 H   0  0  0  0  0  0  0  0  0  0  0  0
    5.2120   -0.8143   -0.3406 H   0  0  0  0  0  0  0  0  0  0  0  0
    3.4781    0.9989   -0.3549 H   0  0  0  0  0  0  0  0  0  0  0  0
    3.7426    0.2133   -1.9067 H   0  0  0  0  0  0  0  0  0  0  0  0
    1.7416   -1.2595   -1.4814 H   0  0  0  0  0  0  0  0  0  0  0  0
    1.3817   -0.3327   -0.0282 H   0  0  0  0  0  0  0  0  0  0  0  0
    0.0793    0.3265   -2.0846 H   0  0  0  0  0  0  0  0  0  0  0  0
    1.5742    0.8501   -2.8481 H   0  0  0  0  0  0  0  0  0  0  0  0
    1.8890    2.5087   -0.9256 H   0  0  0  0  0  0  0  0  0  0  0  0
    0.3278    1.9878   -0.2879 H   0  0  0  0  0  0  0  0  0  0  0  0
    0.8562    3.2498   -3.0240 H   0  0  0  0  0  0  0  0  0  0  0  0
   -0.7212    2.6701   -2.5175 H   0  0  0  0  0  0  0  0  0  0  0  0
    0.4441    4.4999   -0.4792 H   0  0  0  0  0  0  0  0  0  0  0  0
    0.4736    5.2278   -2.0781 H   0  0  0  0  0  0  0  0  0  0  0  0
   -1.9563    4.7819   -2.3669 H   0  0  0  0  0  0  0  0  0  0  0  0
   -1.5763    5.8766   -1.0437 H   0  0  0  0  0  0  0  0  0  0  0  0
   -2.1501    2.8936   -0.6468 H   0  0  0  0  0  0  0  0  0  0  0  0
   -1.8898    4.0880    0.6230 H   0  0  0  0  0  0  0  0  0  0  0  0
   -3.9252    5.3390   -0.1418 H   0  0  0  0  0  0  0  0  0  0  0  0
   -4.1329    4.1845   -1.4524 H   0  0  0  0  0  0  0  0  0  0  0  0
   -4.2980    3.6389    1.5526 H   0  0  0  0  0  0  0  0  0  0  0  0
   -4.2951    2.3388    0.3879 H   0  0  0  0  0  0  0  0  0  0  0  0
   -6.5701    2.9217    1.1386 H   0  0  0  0  0  0  0  0  0  0  0  0
   -6.3575    4.5812    0.6147 H   0  0  0  0  0  0  0  0  0  0  0  0
   -7.7786    3.3750   -0.9020 H   0  0  0  0  0  0  0  0  0  0  0  0
   -6.3492    3.8948   -1.7630 H   0  0  0  0  0  0  0  0  0  0  0  0
   -7.3707    1.4720   -2.0748 H   0  0  0  0  0  0  0  0  0  0  0  0
   -6.5245    1.0721   -0.5856 H   0  0  0  0  0  0  0  0  0  0  0  0
   -4.3579    1.7773   -1.6868 H   0  0  0  0  0  0  0  0  0  0  0  0
   -5.2423    2.1929   -3.1482 H   0  0  0  0  0  0  0  0  0  0  0  0
   -5.8754   -0.1356   -3.5126 H   0  0  0  0  0  0  0  0  0  0  0  0
   -5.2916   -0.6083   -1.9109 H   0  0  0  0  0  0  0  0  0  0  0  0
   -2.9712    0.0309   -2.5428 H   0  0  0  0  0  0  0  0  0  0  0  0
   -3.5175    0.5111   -4.1490 H   0  0  0  0  0  0  0  0  0  0  0  0
   -4.1639   -1.7799   -4.7026 H   0  0  0  0  0  0  0  0  0  0  0  0
   -3.9095   -2.3158   -3.0390 H   0  0  0  0  0  0  0  0  0  0  0  0
   -1.5087   -1.7773   -3.1855 H   0  0  0  0  0  0  0  0  0  0  0  0
   -1.6932   -1.2035   -4.8420 H   0  0  0  0  0  0  0  0  0  0  0  0
   -2.3839   -3.4243   -5.6126 H   0  0  0  0  0  0  0  0  0  0  0  0
   -2.3871   -4.0604   -3.9808 H   0  0  0  0  0  0  0  0  0  0  0  0
    0.0577   -3.0109   -5.5022 H   0  0  0  0  0  0  0  0  0  0  0  0
   -0.3588   -4.7068   -5.3073 H   0  0  0  0  0  0  0  0  0  0  0  0
    1.4639   -3.9107   -3.7923 H   0  0  0  0  0  0  0  0  0  0  0  0
    0.3616   -2.8022   -3.0166 H   0  0  0  0  0  0  0  0  0  0  0  0
    0.3701   -5.8501   -3.0082 H   0  0  0  0  0  0  0  0  0  0  0  0
   -1.0869   -5.0054   -2.5173 H   0  0  0  0  0  0  0  0  0  0  0  0
    1.6267   -4.4491   -1.2234 H   0  0  0  0  0  0  0  0  0  0  0  0
    0.5344   -5.7174   -0.6662 H   0  0  0  0  0  0  0  0  0  0  0  0
   -0.2051   -2.7477   -0.8283 H   0  0  0  0  0  0  0  0  0  0  0  0
   -1.2760   -4.0432   -0.2991 H   0  0  0  0  0  0  0  0  0  0  0  0
    1.3772   -3.3012    1.0372 H   0  0  0  0  0  0  0  0  0  0  0  0
    0.2916   -4.5832    1.5745 H   0  0  0  0  0  0  0  0  0  0  0  0
   -1.5270   -2.9136    1.9511 H   0  0  0  0  0  0  0  0  0  0  0  0
   -0.4698   -1.6160    1.3888 H   0  0  0  0  0  0  0  0  0  0  0  0
   -0.5439   -1.7274    3.8680 H   0  0  0  0  0  0  0  0  0  0  0  0
    0.0718   -3.3892    3.8321 H   0  0  0  0  0  0  0  0  0  0  0  0
    1.0942   -2.0439    3.2750 H   0  0  0  0  0  0  0  0  0  0  0  0
  1  2  1  0
  2  3  1  0
  3  4  1  0
  4  5  1  0
  5  6  1  0
  6  7  1  0
  7  8  1  0
  8  9  1  0
  9 10  1  0
 10 11  1  0
 11 12  1  0
 12 13  1  0
 13 14  1  0
 14 15  1  0
 15 16  1  0
 16 17  1  0
 17 18  1  0
 18 19  1  0
 19 20  1  0
 20 21  1  0
 21 22  1  0
 22 23  1  0
 23 24  1  0
 24 25  1  0
 25 26  1  0
 26 27  1  0
 27 28  1  0
 28 29  1  0
 29 30  1  0
 30 31  1  0
 31 32  1  0
 32 33  1  0
 33 34  1  0
 34 35  1  0
 35 36  1  0
  1 37  1  0
  1 38  1  0
  1 39  1  0
  2 40  1  0
  2 41  1  0
  3 42  1  0
  3 43  1  0
  4 44  1  0
  4 45  1  0
  5 46  1  0
  5 47  1  0
  6 48  1  0
  6 49  1  0
  7 50  1  0
  7 51  1  0
  8 52  1  0
  8 53  1  0
  9 54  1  0
  9 55  1  0
 10 56  1  0
 10 57  1  0
 11 58  1  0
 11 59  1  0
 12 60  1  0
 12 61  1  0
 13 62  1  0
 13 63  1  0
 14 64  1  0
 14 65  1  0
 15 66  1  0
 15 67  1  0
 16 68  1  0
 16 69  1  0
 17 70  1  0
 17 71  1  0
 18 72  1  0
 18 73  1  0
 19 74  1  0
 19 75  1  0
 20 76  1  0
 20 77  1  0
 21 78  1  0
 21 79  1  0
 22 80  1  0
 22 81  1  0
 23 82  1  0
 23 83  1  0
 24 84  1  0
 24 85  1  0
 25 86  1  0
 25 87  1  0
 26 88  1  0
 26 89  1  0
 27 90  1  0
 27 91  1  0
 28 92  1  0
 28 93  1  0
 29 94  1  0
 29 95  1  0
 30 96  1  0
 30 97  1  0
 31 98  1  0
 31 99  1  0
 32100  1  0
 32101  1  0
 33102  1  0
 33103  1  0
 34104  1  0
 34105  1  0
 35106  1  0
 35107  1  0
 36108  1  0
 36109  1  0
 36110  1  0
M  END
$$$$
n-alkane C37H76
     RDKit          3D

113112  0  0  0  0  0  0  0  0999 V2000
    2.3406   -2.5774   -4.0929 C   0  0  0  0  0  0  0  0  0  0  0  0
    3.1680   -3.1746   -2.9654 C   0  0  0  0  0  0  0  0  0  0  0  0
    4.4833   -2.4176   -2.7776 C   0  0  0  0  0  0  0  0  0  0  0  0
    5.4079   -3.0495   -1.7315 C   0  0  0  0  0  0  0  0  0  0  0  0
    4.8230   -3.1868   -0.3216 C   0  0  0  0  0  0  0  0  0  0  0  0
    4.4337   -1.8440    0.3045 C   0  0  0  0  0  0  0  0  0  0  0  0
    3.9410   -1.9769    1.7508 C   0  0  0  0  0  0  0  0  0  0  0  0
    2.5647   -2.6366    1.9056 C   0  0  0  0  0  0  0  0  0  0  0  0
    1.3918   -1.6527    1.9998 C   0  0  0  0  0  0  0  0  0  0  0  0
    1.1690   -0.8216    0.7362 C   0  0  0  0  0  0  0  0  0  0  0  0
   -0.1332   -0.0153    0.7649 C   0  0  0  0  0  0  0  0  0  0  0  0
   -0.2504    1.0102    1.8935 C   0  0  0  0  0  0  0  0  0  0  0  0
    0.8476    2.0748    1.9739 C   0  0  0  0  0  0  0  0  0  0  0  0
    0.8506    3.0886    0.8248 C   0  0  0  0  0  0  0  0  0  0  0  0
    1.7716    2.7033   -0.3358 C   0  0  0  0  0  0  0  0  0  0  0  0
    1.8537    3.8317   -1.3686 C   0  0  0  0  0  0  0  0  0  0  0  0
    2.7710    3.4932   -2.5484 C   0  0  0  0  0  0  0  0  0  0  0  0
    2.0330    3.0343   -3.8104 C   0  0  0  0  0  0  0  0  0  0  0  0
    1.3074    1.6967   -3.6597 C   0  0  0  0  0  0  0  0  0  0  0  0
    0.7750    1.1528   -4.9916 C   0  0  0  0  0  0  0  0  0  0  0  0
   -0.2352    2.0510   -5.7153 C   0  0  0  0  0  0  0  0  0  0  0  0
   -1.5163    2.3565   -4.9320 C   0  0  0  0  0  0  0  0  0  0  0  0
   -2.4000    1.1217   -4.7350 C   0  0  0  0  0  0  0  0  0  0  0  0
   -3.7086    1.4345   -4.0026 C   0  0  0  0  0  0  0  0  0  0  0  0
   -3.5049    1.6651   -2.5027 C   0  0  0  0  0  0  0  0  0  0  0  0
   -4.8394    1.9088   -1.7926 C   0  0  0  0  0  0  0  0  0  0  0  0
   -4.6928    2.1574   -0.2870 C   0  0  0  0  0  0  0  0  0  0  0  0
   -4.0533    1.0177    0.5140 C   0  0  0  0  0  0  0  0  0  0  0  0
   -4.8891   -0.2646    0.5307 C   0  0  0  0  0  0  0  0  0  0  0  0
   -4.1541   -1.4630    1.1401 C   0  0  0  0  0  0  0  0  0  0  0  0
   -3.7507   -1.2699    2.6040 C   0  0  0  0  0  0  0  0  0  0  0  0
   -3.0685   -2.5273    3.1498 C   0  0  0  0  0  0  0  0  0  0  0  0
   -2.7006   -2.4389    4.6346 C   0  0  0  0  0  0  0  0  0  0  0  0
   -1.6573   -1.3610    4.9360 C   0  0  0  0  0  0  0  0  0  0  0  0
   -1.1926   -1.3487    6.3955 C   0  0  0  0  0  0  0  0  0  0  0  0
   -0.4559   -2.6046    6.8689 C   0  0  0  0  0  0  0  0  0  0  0  0
    0.7890   -2.9253    6.0557 C   0  0  0  0  0  0  0  0  0  0  0  0
    2.8814   -2.6204   -5.0436 H   0  0  0  0  0  0  0  0  0  0  0  0
    2.0947   -1.5323   -3.8837 H   0  0  0  0  0  0  0  0  0  0  0  0
    1.4032   -3.1301   -4.2097 H   0  0  0  0  0  0  0  0  0  0  0  0
    3.3724   -4.2281   -3.1879 H   0  0  0  0  0  0  0  0  0  0  0  0
    2.5754   -3.1429   -2.0448 H   0  0  0  0  0  0  0  0  0  0  0  0
    4.2769   -1.3733   -2.5162 H   0  0  0  0  0  0  0  0  0  0  0  0
    5.0220   -2.3919   -3.7333 H   0  0  0  0  0  0  0  0  0  0  0  0
    6.3291   -2.4559   -1.6788 H   0  0  0  0  0  0  0  0  0  0  0  0
    5.7048   -4.0467   -2.0798 H   0  0  0  0  0  0  0  0  0  0  0  0
    3.9656   -3.8663   -0.3463 H   0  0  0  0  0  0  0  0  0  0  0  0
    5.5771   -3.6697    0.3127 H   0  0  0  0  0  0  0  0  0  0  0  0
    5.3148   -1.1903    0.3033 H   0  0  0  0  0  0  0  0  0  0  0  0
    3.6758   -1.3488   -0.3066 H   0  0  0  0  0  0  0  0  0  0  0  0
    3.9304   -0.9853    2.2194 H   0  0  0  0  0  0  0  0  0  0  0  0
    4.6767   -2.5694    2.3096 H   0  0  0  0  0  0  0  0  0  0  0  0
    2.3737   -3.3621    1.1087 H   0  0  0  0  0  0  0  0  0  0  0  0
    2.5738   -3.2090    2.8425 H   0  0  0  0  0  0  0  0  0  0  0  0
    1.5513   -0.9925    2.8602 H   0  0  0  0  0  0  0  0  0  0  0  0
    0.4841   -2.2313    2.2113 H   0  0  0  0  0  0  0  0  0  0  0  0
    2.0134   -0.1440    0.5822 H   0  0  0  0  0  0  0  0  0  0  0  0
    1.1356   -1.4899   -0.1330 H   0  0  0  0  0  0  0  0  0  0  0  0
   -0.2677    0.4857   -0.2000 H   0  0  0  0  0  0  0  0  0  0  0  0
   -0.9727   -0.7158    0.8521 H   0  0  0  0  0  0  0  0  0  0  0  0
   -1.2220    1.5118    1.8069 H   0  0  0  0  0  0  0  0  0  0  0  0
   -0.2797    0.4801    2.8521 H   0  0  0  0  0  0  0  0  0  0  0  0
    0.6659    2.6368    2.9000 H   0  0  0  0  0  0  0  0  0  0  0  0
    1.8344    1.6154    2.0960 H   0  0  0  0  0  0  0  0  0  0  0  0
   -0.1692    3.2597    0.4601 H   0  0  0  0  0  0  0  0  0  0  0  0
    1.2009    4.0472    1.2293 H   0  0  0  0  0  0  0  0  0  0  0  0
    1.4174    1.7888   -0.8141 H   0  0  0  0  0  0  0  0  0  0  0  0
    2.7771    2.4948    0.0499 H   0  0  0  0  0  0  0  0  0  0  0  0
    0.8514    4.1021   -1.7213 H   0  0  0  0  0  0  0  0  0  0  0  0
    2.2581    4.7202   -0.8668 H   0  0  0  0  0  0  0  0  0  0  0  0
    3.3226    4.4040   -2.8157 H   0  0  0  0  0  0  0  0  0  0  0  0
    3.5257    2.7518   -2.2607 H   0  0  0  0  0  0  0  0  0  0  0  0
    2.7684    2.9521   -4.6205 H   0  0  0  0  0  0  0  0  0  0  0  0
    1.3236    3.8151   -4.1083 H   0  0  0  0  0  0  0  0  0  0  0  0
    2.0023    0.9572   -3.2431 H   0  0  0  0  0  0  0  0  0  0  0  0
    0.4836    1.7888   -2.9447 H   0  0  0  0  0  0  0  0  0  0  0  0
    1.6246    0.9814   -5.6649 H   0  0  0  0  0  0  0  0  0  0  0  0
    0.3298    0.1671   -4.8154 H   0  0  0  0  0  0  0  0  0  0  0  0
   -0.5039    1.5742   -6.6665 H   0  0  0  0  0  0  0  0  0  0  0  0
    0.2469    2.9983   -5.9830 H   0  0  0  0  0  0  0  0  0  0  0  0
   -1.2684    2.8160   -3.9705 H   0  0  0  0  0  0  0  0  0  0  0  0
   -2.0860    3.1078   -5.4935 H   0  0  0  0  0  0  0  0  0  0  0  0
   -1.8583    0.3402   -4.1912 H   0  0  0  0  0  0  0  0  0  0  0  0
   -2.6482    0.7084   -5.7206 H   0  0  0  0  0  0  0  0  0  0  0  0
   -4.1962    2.3047   -4.4579 H   0  0  0  0  0  0  0  0  0  0  0  0
   -4.3879    0.5835   -4.1378 H   0  0  0  0  0  0  0  0  0  0  0  0
   -2.8457    2.5239   -2.3355 H   0  0  0  0  0  0  0  0  0  0  0  0
   -3.0081    0.7852   -2.0799 H   0  0  0  0  0  0  0  0  0  0  0  0
   -5.3221    2.7884   -2.2371 H   0  0  0  0  0  0  0  0  0  0  0  0
   -5.5173    1.0671   -1.9714 H   0  0  0  0  0  0  0  0  0  0  0  0
   -5.6839    2.3748    0.1301 H   0  0  0  0  0  0  0  0  0  0  0  0
   -4.0901    3.0624   -0.1391 H   0  0  0  0  0  0  0  0  0  0  0  0
   -3.9218    1.3712    1.5437 H   0  0  0  0  0  0  0  0  0  0  0  0
   -3.0499    0.8081    0.1307 H   0  0  0  0  0  0  0  0  0  0  0  0
   -5.8218   -0.0859    1.0791 H   0  0  0  0  0  0  0  0  0  0  0  0
   -5.1713   -0.5432   -0.4901 H   0  0  0  0  0  0  0  0  0  0  0  0
   -4.8076   -2.3408    1.0603 H   0  0  0  0  0  0  0  0  0  0  0  0
   -3.2632   -1.6820    0.5391 H   0  0  0  0  0  0  0  0  0  0  0  0
   -3.0673   -0.4197    2.6858 H   0  0  0  0  0  0  0  0  0  0  0  0
   -4.6383   -1.0392    3.2045 H   0  0  0  0  0  0  0  0  0  0  0  0
   -2.1654   -2.7395    2.5641 H   0  0  0  0  0  0  0  0  0  0  0  0
   -3.7388   -3.3854    3.0154 H   0  0  0  0  0  0  0  0  0  0  0  0
   -2.3177   -3.4202    4.9357 H   0  0  0  0  0  0  0  0  0  0  0  0
   -3.6038   -2.2546    5.2285 H   0  0  0  0  0  0  0  0  0  0  0  0
   -2.0831   -0.3746    4.7183 H   0  0  0  0  0  0  0  0  0  0  0  0
   -0.7955   -1.4794    4.2717 H   0  0  0  0  0  0  0  0  0  0  0  0
   -2.0601   -1.1848    7.0468 H   0  0  0  0  0  0  0  0  0  0  0  0
   -0.5332   -0.4831    6.5374 H   0  0  0  0  0  0  0  0  0  0  0  0
   -0.1595   -2.4539    7.9142 H   0  0  0  0  0  0  0  0  0  0  0  0
   -1.1289   -3.4686    6.8629 H   0  0  0  0  0  0  0  0  0  0  0  0
    0.5348   -3.2212    5.0336 H   0  0  0  0  0  0  0  0  0  0  0  0
    1.4631   -2.0641    6.0106 H   0  0  0  0  0  0  0  0  0  0  0  0
    1.3327   -3.7576    6.5141 H   0  0  0  0  0  0  0  0  0  0  0  0
  1  2  1  0
  2  3  1  0
  3  4  1  0
  4  5  1  0
  5  6  1  0
  6  7  1  0
  7  8  1  0
  8  9  1  0
  9 10  1  0
 10 11  1  0
 11 12  1  0
 12 13  1  0
 13 14  1  0
 14 15  1  0
 15 16  1  0
 16 17  1  0
 17 18  1  0
 18 19  1  0
 19 20  1  0
 20 21  1  0
 21 22  1  0
 22 23  1  0
 23 24  1  0
 24 25  1  0
 25 26  1  0
 26 27  1  0
 27 28  1  0
 28 29  1  0
 29 30  1  0
 30 31  1  0
 31 32  1  0
 32 33  1  0
 33 34  1  0
 34 35  1  0
 35 36  1  0
 36 37  1  0
  1 38  1  0
  1 39  1  0
  1 40  1  0
  2 41  1  0
  2 42  1  0
  3 43  1  0
  3 44  1  0
  4 45  1  0
  4 46  1  0
  5 47  1  0
  5 48  1  0
  6 49  1  0
  6 50  1  0
  7 51  1  0
  7 52  1  0
  8 53  1  0
  8 54  1  0
  9 55  1  0
  9 56  1  0
 10 57  1  0
 10 58  1  0
 11 59  1  0
 11 60  1  0
 12 61  1  0
 12 62  1  0
 13 63  1  0
 13 64  1  0
 14 65  1  0
 14 66  1  0
 15 67  1  0
 15 68  1  0
 16 69  1  0
 16 70  1  0
 17 71  1  0
 17 72  1  0
 18 73  1  0
 18 74  1  0
 19 75  1  0
 19 76  1  0
 20 77  1  0
 20 78  1  0
 21 79  1  0
 21 80  1  0
 22 81  1  0
 22 82  1  0
 23 83  1  0
 23 84  1  0
 24 85  1  0
 24 86  1  0
 25 87  1  0
 25 88  1  0
 26 89  1  0
 26 90  1  0
 27 91  1  0
 27 92  1  0
 28 93  1  0
 28 94  1  0
 29 95  1  0
 29 96  1  0
 30 97  1  0
 30 98  1  0
 31 99  1  0
 31100  1  0
 32101  1  0
 32102  1  0
 33103  1  0
 33104  1  0
 34105  1  0
 34106  1  0
 35107  1  0
 35108  1  0
 36109  1  0
 36110  1  0
 37111  1  0
 37112  1  0
 37113  1  0
M  END
$$$$
n-alkane C38H78
     RDKit          3D

116115  0  0  0  0  0  0  0  0999 V2000
    6.0930   -1.1489    5.8246 C   0  0  0  0  0  0  0  0  0  0  0  0
    5.7089   -1.0118    4.3590 C   0  0  0  0  0  0  0  0  0  0  0  0
    4.2857   -1.5109    4.1079 C   0  0  0  0  0  0  0  0  0  0  0  0
    3.8033   -1.2842    2.6718 C   0  0  0  0  0  0  0  0  0  0  0  0
    4.5522   -2.1269    1.6360 C   0  0  0  0  0  0  0  0  0  0  0  0
    4.0702   -1.8941    0.1995 C   0  0  0  0  0  0  0  0  0  0  0  0
    2.6279   -2.3464   -0.0394 C   0  0  0  0  0  0  0  0  0  0  0  0
    2.2418   -2.2202   -1.5159 C   0  0  0  0  0  0  0  0  0  0  0  0
    0.7421   -2.4082   -1.7644 C   0  0  0  0  0  0  0  0  0  0  0  0
    0.2360   -3.8055   -1.4038 C   0  0  0  0  0  0  0  0  0  0  0  0
   -1.2477   -4.0101   -1.7271 C   0  0  0  0  0  0  0  0  0  0  0  0
   -2.2215   -3.0825   -0.9901 C   0  0  0  0  0  0  0  0  0  0  0  0
   -2.0759   -3.1387    0.5329 C   0  0  0  0  0  0  0  0  0  0  0  0
   -3.2226   -2.4561    1.2833 C   0  0  0  0  0  0  0  0  0  0  0  0
   -3.3402   -0.9582    0.9919 C   0  0  0  0  0  0  0  0  0  0  0  0
   -4.4131   -0.3146    1.8700 C   0  0  0  0  0  0  0  0  0  0  0  0
   -4.5079    1.2079    1.7341 C   0  0  0  0  0  0  0  0  0  0  0  0
   -4.9067    1.7000    0.3386 C   0  0  0  0  0  0  0  0  0  0  0  0
   -3.7077    2.1799   -0.4863 C   0  0  0  0  0  0  0  0  0  0  0  0
   -4.1197    2.8048   -1.8228 C   0  0  0  0  0  0  0  0  0  0  0  0
   -4.7556    1.8418   -2.8309 C   0  0  0  0  0  0  0  0  0  0  0  0
   -3.8712    0.6752   -3.2854 C   0  0  0  0  0  0  0  0  0  0  0  0
   -2.5632    1.1344   -3.9337 C   0  0  0  0  0  0  0  0  0  0  0  0
   -1.8014   -0.0333   -4.5676 C   0  0  0  0  0  0  0  0  0  0  0  0
   -0.5305    0.4185   -5.2967 C   0  0  0  0  0  0  0  0  0  0  0  0
    0.5818    0.8569   -4.3404 C   0  0  0  0  0  0  0  0  0  0  0  0
    1.7985    1.3932   -5.0966 C   0  0  0  0  0  0  0  0  0  0  0  0
    3.0300    1.6292   -4.2145 C   0  0  0  0  0  0  0  0  0  0  0  0
    3.0838    2.9728   -3.4765 C   0  0  0  0  0  0  0  0  0  0  0  0
    2.0684    3.2093   -2.3558 C   0  0  0  0  0  0  0  0  0  0  0  0
    2.0704    2.1182   -1.2850 C   0  0  0  0  0  0  0  0  0  0  0  0
    1.0728    2.4207   -0.1645 C   0  0  0  0  0  0  0  0  0  0  0  0
    1.0379    1.2741    0.8460 C   0  0  0  0  0  0  0  0  0  0  0  0
    0.0661    1.5479    1.9930 C   0  0  0  0  0  0  0  0  0  0  0  0
    0.0472    0.3762    2.9778 C   0  0  0  0  0  0  0  0  0  0  0  0
   -0.9352    0.6196    4.1237 C   0  0  0  0  0  0  0  0  0  0  0  0
   -1.1146   -0.5981    5.0327 C   0  0  0  0  0  0  0  0  0  0  0  0
    0.1562   -1.0064    5.7616 C   0  0  0  0  0  0  0  0  0  0  0  0
    5.4243   -0.5619    6.4623 H   0  0  0  0  0  0  0  0  0  0  0  0
    7.1148   -0.7903    5.9836 H   0  0  0  0  0  0  0  0  0  0  0  0
    6.0455   -2.1942    6.1461 H   0  0  0  0  0  0  0  0  0  0  0  0
    6.4250   -1.5797    3.7559 H   0  0  0  0  0  0  0  0  0  0  0  0
    5.7931    0.0401    4.0627 H   0  0  0  0  0  0  0  0  0  0  0  0
    4.2158   -2.5769    4.3562 H   0  0  0  0  0  0  0  0  0  0  0  0
    3.5999   -0.9845    4.7836 H   0  0  0  0  0  0  0  0  0  0  0  0
    2.7369   -1.5329    2.6416 H   0  0  0  0  0  0  0  0  0  0  0  0
    3.8904   -0.2209    2.4189 H   0  0  0  0  0  0  0  0  0  0  0  0
    4.4581   -3.1905    1.8864 H   0  0  0  0  0  0  0  0  0  0  0  0
    5.6207   -1.8866    1.6692 H   0  0  0  0  0  0  0  0  0  0  0  0
    4.1710   -0.8313   -0.0529 H   0  0  0  0  0  0  0  0  0  0  0  0
    4.7346   -2.4448   -0.4779 H   0  0  0  0  0  0  0  0  0  0  0  0
    1.9429   -1.7435    0.5650 H   0  0  0  0  0  0  0  0  0  0  0  0
    2.5187   -3.3874    0.2850 H   0  0  0  0  0  0  0  0  0  0  0  0
    2.5246   -1.2257   -1.8808 H   0  0  0  0  0  0  0  0  0  0  0  0
    2.8100   -2.9466   -2.1093 H   0  0  0  0  0  0  0  0  0  0  0  0
    0.5416   -2.2233   -2.8264 H   0  0  0  0  0  0  0  0  0  0  0  0
    0.1930   -1.6457   -1.2010 H   0  0  0  0  0  0  0  0  0  0  0  0
    0.8153   -4.5496   -1.9644 H   0  0  0  0  0  0  0  0  0  0  0  0
    0.4088   -4.0163   -0.3435 H   0  0  0  0  0  0  0  0  0  0  0  0
   -1.4008   -3.8896   -2.8068 H   0  0  0  0  0  0  0  0  0  0  0  0
   -1.5092   -5.0499   -1.4938 H   0  0  0  0  0  0  0  0  0  0  0  0
   -2.0851   -2.0542   -1.3428 H   0  0  0  0  0  0  0  0  0  0  0  0
   -3.2421   -3.3728   -1.2690 H   0  0  0  0  0  0  0  0  0  0  0  0
   -2.0362   -4.1868    0.8541 H   0  0  0  0  0  0  0  0  0  0  0  0
   -1.1289   -2.6768    0.8357 H   0  0  0  0  0  0  0  0  0  0  0  0
   -3.0601   -2.6038    2.3582 H   0  0  0  0  0  0  0  0  0  0  0  0
   -4.1685   -2.9537    1.0366 H   0  0  0  0  0  0  0  0  0  0  0  0
   -3.5981   -0.8141   -0.0615 H   0  0  0  0  0  0  0  0  0  0  0  0
   -2.3758   -0.4699    1.1669 H   0  0  0  0  0  0  0  0  0  0  0  0
   -5.3888   -0.7607    1.6404 H   0  0  0  0  0  0  0  0  0  0  0  0
   -4.2046   -0.5467    2.9221 H   0  0  0  0  0  0  0  0  0  0  0  0
   -3.5708    1.6738    2.0588 H   0  0  0  0  0  0  0  0  0  0  0  0
   -5.2766    1.5438    2.4422 H   0  0  0  0  0  0  0  0  0  0  0  0
   -5.5923    2.5482    0.4616 H   0  0  0  0  0  0  0  0  0  0  0  0
   -5.4646    0.9225   -0.1938 H   0  0  0  0  0  0  0  0  0  0  0  0
   -3.1700    2.9453    0.0880 H   0  0  0  0  0  0  0  0  0  0  0  0
   -2.9951    1.3665   -0.6511 H   0  0  0  0  0  0  0  0  0  0  0  0
   -4.8296    3.6191   -1.6293 H   0  0  0  0  0  0  0  0  0  0  0  0
   -3.2410    3.2799   -2.2745 H   0  0  0  0  0  0  0  0  0  0  0  0
   -5.0469    2.4218   -3.7161 H   0  0  0  0  0  0  0  0  0  0  0  0
   -5.6875    1.4374   -2.4196 H   0  0  0  0  0  0  0  0  0  0  0  0
   -4.4436    0.0797   -4.0076 H   0  0  0  0  0  0  0  0  0  0  0  0
   -3.6543    0.0116   -2.4413 H   0  0  0  0  0  0  0  0  0  0  0  0
   -2.7800    1.8853   -4.7031 H   0  0  0  0  0  0  0  0  0  0  0  0
   -1.9365    1.6150   -3.1761 H   0  0  0  0  0  0  0  0  0  0  0  0
   -2.4549   -0.5302   -5.2952 H   0  0  0  0  0  0  0  0  0  0  0  0
   -1.5511   -0.7786   -3.8033 H   0  0  0  0  0  0  0  0  0  0  0  0
   -0.1635   -0.4177   -5.9047 H   0  0  0  0  0  0  0  0  0  0  0  0
   -0.7732    1.2322   -5.9907 H   0  0  0  0  0  0  0  0  0  0  0  0
    0.8781    0.0023   -3.7232 H   0  0  0  0  0  0  0  0  0  0  0  0
    0.2002    1.6248   -3.6679 H   0  0  0  0  0  0  0  0  0  0  0  0
    2.0767    0.6558   -5.8608 H   0  0  0  0  0  0  0  0  0  0  0  0
    1.5352    2.3128   -5.6323 H   0  0  0  0  0  0  0  0  0  0  0  0
    3.1714    0.7947   -3.5190 H   0  0  0  0  0  0  0  0  0  0  0  0
    3.9052    1.6071   -4.8782 H   0  0  0  0  0  0  0  0  0  0  0  0
    2.9896    3.7853   -4.2078 H   0  0  0  0  0  0  0  0  0  0  0  0
    4.0886    3.0723   -3.0450 H   0  0  0  0  0  0  0  0  0  0  0  0
    2.3066    4.1704   -1.8820 H   0  0  0  0  0  0  0  0  0  0  0  0
    1.0661    3.3305   -2.7778 H   0  0  0  0  0  0  0  0  0  0  0  0
    3.0780    2.0192   -0.8634 H   0  0  0  0  0  0  0  0  0  0  0  0
    1.8124    1.1528   -1.7298 H   0  0  0  0  0  0  0  0  0  0  0  0
    1.3532    3.3536    0.3387 H   0  0  0  0  0  0  0  0  0  0  0  0
    0.0717    2.5658   -0.5885 H   0  0  0  0  0  0  0  0  0  0  0  0
    0.7401    0.3519    0.3337 H   0  0  0  0  0  0  0  0  0  0  0  0
    2.0443    1.1104    1.2490 H   0  0  0  0  0  0  0  0  0  0  0  0
   -0.9407    1.7105    1.5904 H   0  0  0  0  0  0  0  0  0  0  0  0
    0.3592    2.4657    2.5165 H   0  0  0  0  0  0  0  0  0  0  0  0
   -0.2243   -0.5447    2.4479 H   0  0  0  0  0  0  0  0  0  0  0  0
    1.0562    0.2327    3.3801 H   0  0  0  0  0  0  0  0  0  0  0  0
   -0.6016    1.4784    4.7188 H   0  0  0  0  0  0  0  0  0  0  0  0
   -1.9158    0.8836    3.7116 H   0  0  0  0  0  0  0  0  0  0  0  0
   -1.4865   -1.4471    4.4470 H   0  0  0  0  0  0  0  0  0  0  0  0
   -1.8858   -0.3654    5.7767 H   0  0  0  0  0  0  0  0  0  0  0  0
    0.9161   -1.3744    5.0661 H   0  0  0  0  0  0  0  0  0  0  0  0
   -0.0601   -1.8121    6.4706 H   0  0  0  0  0  0  0  0  0  0  0  0
    0.5762   -0.1653    6.3219 H   0  0  0  0  0  0  0  0  0  0  0  0
  1  2  1  0
  2  3  1  0
  3  4  1  0
  4  5  1  0
  5  6  1  0
  6  7  1  0
  7  8  1  0
  8  9  1  0
  9 10  1  0
 10 11  1  0
 11 12  1  0
 12 13  1  0
 13 14  1  0
 14 15  1  0
 15 16  1  0
 16 17  1  0
 17 18  1  0
 18 19  1  0
 19 20  1  0
 20 21  1  0
 21 22  1  0
 22 23  1  0
 23 24  1  0
 24 25  1  0
 25 26  1  0
 26 27  1  0
 27 28  1  0
 28 29  1  0
 29 30  1  0
 30 31  1  0
 31 32  1  0
 32 33  1  0
 33 34  1  0
 34 35  1  0
 35 36  1  0
 36 37  1  0
 37 38  1  0
  1 39  1  0
  1 40  1  0
  1 41  1  0
  2 42  1  0
  2 43  1  0
  3 44  1  0
  3 45  1  0
  4 46  1  0
  4 47  1  0
  5 48  1  0
  5 49  1  0
  6 50  1  0
  6 51  1  0
  7 52  1  0
  7 53  1  0
  8 54  1  0
  8 55  1  0
  9 56  1  0
  9 57  1  0
 10 58  1  0
 10 59  1  0
 11 60  1  0
 11 61  1  0
 12 62  1  0
 12 63  1  0
 13 64  1  0
 13 65  1  0
 14 66  1  0
 14 67  1  0
 15 68  1  0
 15 69  1  0
 16 70  1  0
 16 71  1  0
 17 72  1  0
 17 73  1  0
 18 74  1  0
 18 75  1  0
 19 76  1  0
 19 77  1  0
 20 78  1  0
 20 79  1  0
 21 80  1  0
 21 81  1  0
 22 82  1  0
 22 83  1  0
 23 84  1  0
 23 85  1  0
 24 86  1  0
 24 87  1  0
 25 88  1  0
 25 89  1  0
 26 90  1  0
 26 91  1  0
 27 92  1  0
 27 93  1  0
 28 94  1  0
 28 95  1  0
 29 96  1  0
 29 97  1  0
 30 98  1  0
 30 99  1  0
 31100  1  0
 31101  1  0
 32102  1  0
 32103  1  0
 33104  1  0
 33105  1  0
 34106  1  0
 34107  1  0
 35108  1  0
 35109  1  0
 36110  1  0
 36111  1  0
 37112  1  0
 37113  1  0
 38114  1  0
 38115  1  0
 38116  1  0
M  END
$$$$
n-alkane C39H80
     RDKit          3D

119118  0  0  0  0  0  0  0  0999 V2000
    3.2588   -6.8393    6.4540 C   0  0  0  0  0  0  0  0  0  0  0  0
    2.5317   -6.3202    5.2234 C   0  0  0  0  0  0  0  0  0  0  0  0
    3.4707   -5.7974    4.1345 C   0  0  0  0  0  0  0  0  0  0  0  0
    4.2356   -4.5372    4.5483 C   0  0  0  0  0  0  0  0  0  0  0  0
    5.0981   -4.0142    3.3966 C   0  0  0  0  0  0  0  0  0  0  0  0
    5.9486   -2.7973    3.7748 C   0  0  0  0  0  0  0  0  0  0  0  0
    5.1725   -1.5623    4.2450 C   0  0  0  0  0  0  0  0  0  0  0  0
    4.0870   -1.0609    3.2892 C   0  0  0  0  0  0  0  0  0  0  0  0
    4.6301   -0.6033    1.9338 C   0  0  0  0  0  0  0  0  0  0  0  0
    3.4991   -0.1132    1.0277 C   0  0  0  0  0  0  0  0  0  0  0  0
    4.0315    0.4090   -0.3072 C   0  0  0  0  0  0  0  0  0  0  0  0
    2.8881    0.8686   -1.2153 C   0  0  0  0  0  0  0  0  0  0  0  0
    3.4188    1.4577   -2.5232 C   0  0  0  0  0  0  0  0  0  0  0  0
    2.3167    1.8573   -3.5095 C   0  0  0  0  0  0  0  0  0  0  0  0
    1.3838    2.9432   -2.9695 C   0  0  0  0  0  0  0  0  0  0  0  0
    0.4541    3.4792   -4.0606 C   0  0  0  0  0  0  0  0  0  0  0  0
   -0.5189    4.5133   -3.4921 C   0  0  0  0  0  0  0  0  0  0  0  0
   -1.3971    5.1255   -4.5860 C   0  0  0  0  0  0  0  0  0  0  0  0
   -2.4255    6.0875   -3.9827 C   0  0  0  0  0  0  0  0  0  0  0  0
   -3.3439    6.7345   -5.0222 C   0  0  0  0  0  0  0  0  0  0  0  0
   -4.3582    5.8016   -5.6972 C   0  0  0  0  0  0  0  0  0  0  0  0
   -5.7413    5.7627   -5.0376 C   0  0  0  0  0  0  0  0  0  0  0  0
   -5.8709    5.0941   -3.6652 C   0  0  0  0  0  0  0  0  0  0  0  0
   -5.8266    3.5607   -3.6787 C   0  0  0  0  0  0  0  0  0  0  0  0
   -4.4222    2.9786   -3.5305 C   0  0  0  0  0  0  0  0  0  0  0  0
   -4.4410    1.4491   -3.5182 C   0  0  0  0  0  0  0  0  0  0  0  0
   -3.0200    0.8844   -3.4393 C   0  0  0  0  0  0  0  0  0  0  0  0
   -3.0269   -0.6439   -3.4928 C   0  0  0  0  0  0  0  0  0  0  0  0
   -1.6237   -1.2528   -3.5632 C   0  0  0  0  0  0  0  0  0  0  0  0
   -0.7118   -0.9650   -2.3673 C   0  0  0  0  0  0  0  0  0  0  0  0
   -1.2693   -1.4860   -1.0411 C   0  0  0  0  0  0  0  0  0  0  0  0
   -0.2426   -1.3448    0.0838 C   0  0  0  0  0  0  0  0  0  0  0  0
   -0.7928   -1.8647    1.4139 C   0  0  0  0  0  0  0  0  0  0  0  0
    0.2582   -1.7597    2.5209 C   0  0  0  0  0  0  0  0  0  0  0  0
   -0.2667   -2.1618    3.9019 C   0  0  0  0  0  0  0  0  0  0  0  0
   -0.6036   -3.6509    4.0078 C   0  0  0  0  0  0  0  0  0  0  0  0
   -0.9536   -4.0903    5.4336 C   0  0  0  0  0  0  0  0  0  0  0  0
   -2.1707   -3.4044    6.0587 C   0  0  0  0  0  0  0  0  0  0  0  0
   -3.4570   -3.6146    5.2756 C   0  0  0  0  0  0  0  0  0  0  0  0
    3.7793   -6.0351    6.9820 H   0  0  0  0  0  0  0  0  0  0  0  0
    2.5430   -7.2843    7.1527 H   0  0  0  0  0  0  0  0  0  0  0  0
    3.9903   -7.6073    6.1838 H   0  0  0  0  0  0  0  0  0  0  0  0
    1.8307   -5.5329    5.5210 H   0  0  0  0  0  0  0  0  0  0  0  0
    1.9323   -7.1364    4.8029 H   0  0  0  0  0  0  0  0  0  0  0  0
    2.8708   -5.5737    3.2434 H   0  0  0  0  0  0  0  0  0  0  0  0
    4.1783   -6.5855    3.8500 H   0  0  0  0  0  0  0  0  0  0  0  0
    3.5173   -3.7711    4.8605 H   0  0  0  0  0  0  0  0  0  0  0  0
    4.8798   -4.7523    5.4079 H   0  0  0  0  0  0  0  0  0  0  0  0
    4.4649   -3.7769    2.5339 H   0  0  0  0  0  0  0  0  0  0  0  0
    5.7759   -4.8122    3.0680 H   0  0  0  0  0  0  0  0  0  0  0  0
    6.6471   -3.0869    4.5702 H   0  0  0  0  0  0  0  0  0  0  0  0
    6.5718   -2.5273    2.9140 H   0  0  0  0  0  0  0  0  0  0  0  0
    4.7091   -1.7766    5.2155 H   0  0  0  0  0  0  0  0  0  0  0  0
    5.8894   -0.7519    4.4276 H   0  0  0  0  0  0  0  0  0  0  0  0
    3.5732   -0.2180    3.7686 H   0  0  0  0  0  0  0  0  0  0  0  0
    3.3293   -1.8380    3.1455 H   0  0  0  0  0  0  0  0  0  0  0  0
    5.3598    0.2010    2.0854 H   0  0  0  0  0  0  0  0  0  0  0  0
    5.1523   -1.4271    1.4351 H   0  0  0  0  0  0  0  0  0  0  0  0
    2.8007   -0.9374    0.8441 H   0  0  0  0  0  0  0  0  0  0  0  0
    2.9375    0.6813    1.5339 H   0  0  0  0  0  0  0  0  0  0  0  0
    4.7171    1.2454   -0.1251 H   0  0  0  0  0  0  0  0  0  0  0  0
    4.6063   -0.3780   -0.8101 H   0  0  0  0  0  0  0  0  0  0  0  0
    2.2887    1.6157   -0.6833 H   0  0  0  0  0  0  0  0  0  0  0  0
    2.2315    0.0191   -1.4352 H   0  0  0  0  0  0  0  0  0  0  0  0
    4.0439    2.3323   -2.3046 H   0  0  0  0  0  0  0  0  0  0  0  0
    4.0680    0.7217   -3.0134 H   0  0  0  0  0  0  0  0  0  0  0  0
    1.7296    0.9725   -3.7842 H   0  0  0  0  0  0  0  0  0  0  0  0
    2.7972    2.2152   -4.4285 H   0  0  0  0  0  0  0  0  0  0  0  0
    0.7797    2.5387   -2.1493 H   0  0  0  0  0  0  0  0  0  0  0  0
    1.9768    3.7703   -2.5606 H   0  0  0  0  0  0  0  0  0  0  0  0
    1.0515    3.9334   -4.8602 H   0  0  0  0  0  0  0  0  0  0  0  0
   -0.1098    2.6510   -4.5066 H   0  0  0  0  0  0  0  0  0  0  0  0
    0.0406    5.3103   -2.9872 H   0  0  0  0  0  0  0  0  0  0  0  0
   -1.1524    4.0342   -2.7353 H   0  0  0  0  0  0  0  0  0  0  0  0
   -1.8951    4.3246   -5.1404 H   0  0  0  0  0  0  0  0  0  0  0  0
   -0.7664    5.6648   -5.3030 H   0  0  0  0  0  0  0  0  0  0  0  0
   -3.0127    5.5740   -3.2181 H   0  0  0  0  0  0  0  0  0  0  0  0
   -1.8843    6.8898   -3.4648 H   0  0  0  0  0  0  0  0  0  0  0  0
   -3.8731    7.5738   -4.5548 H   0  0  0  0  0  0  0  0  0  0  0  0
   -2.7098    7.1753   -5.8025 H   0  0  0  0  0  0  0  0  0  0  0  0
   -3.9616    4.7963   -5.8464 H   0  0  0  0  0  0  0  0  0  0  0  0
   -4.5191    6.1969   -6.7100 H   0  0  0  0  0  0  0  0  0  0  0  0
   -6.1016    6.7957   -4.9443 H   0  0  0  0  0  0  0  0  0  0  0  0
   -6.4367    5.2717   -5.7307 H   0  0  0  0  0  0  0  0  0  0  0  0
   -5.1581    5.5083   -2.9472 H   0  0  0  0  0  0  0  0  0  0  0  0
   -6.8629    5.3731   -3.2838 H   0  0  0  0  0  0  0  0  0  0  0  0
   -6.3035    3.1765   -4.5881 H   0  0  0  0  0  0  0  0  0  0  0  0
   -6.4303    3.1991   -2.8360 H   0  0  0  0  0  0  0  0  0  0  0  0
   -3.9654    3.3455   -2.6038 H   0  0  0  0  0  0  0  0  0  0  0  0
   -3.7926    3.3079   -4.3571 H   0  0  0  0  0  0  0  0  0  0  0  0
   -4.9314    1.0826   -4.4282 H   0  0  0  0  0  0  0  0  0  0  0  0
   -5.0296    1.0914   -2.6649 H   0  0  0  0  0  0  0  0  0  0  0  0
   -2.4238    1.2756   -4.2726 H   0  0  0  0  0  0  0  0  0  0  0  0
   -2.5474    1.2283   -2.5123 H   0  0  0  0  0  0  0  0  0  0  0  0
   -3.5784   -0.9674   -4.3847 H   0  0  0  0  0  0  0  0  0  0  0  0
   -3.5734   -1.0458   -2.6322 H   0  0  0  0  0  0  0  0  0  0  0  0
   -1.1257   -0.8942   -4.4728 H   0  0  0  0  0  0  0  0  0  0  0  0
   -1.7242   -2.3395   -3.6769 H   0  0  0  0  0  0  0  0  0  0  0  0
   -0.5145    0.1103   -2.2911 H   0  0  0  0  0  0  0  0  0  0  0  0
    0.2572   -1.4419   -2.5621 H   0  0  0  0  0  0  0  0  0  0  0  0
   -2.1761   -0.9323   -0.7726 H   0  0  0  0  0  0  0  0  0  0  0  0
   -1.5501   -2.5406   -1.1485 H   0  0  0  0  0  0  0  0  0  0  0  0
    0.0437   -0.2914    0.1905 H   0  0  0  0  0  0  0  0  0  0  0  0
    0.6644   -1.9028   -0.1789 H   0  0  0  0  0  0  0  0  0  0  0  0
   -1.6832   -1.2887    1.6931 H   0  0  0  0  0  0  0  0  0  0  0  0
   -1.1047   -2.9078    1.2908 H   0  0  0  0  0  0  0  0  0  0  0  0
    1.1251   -2.3796    2.2636 H   0  0  0  0  0  0  0  0  0  0  0  0
    0.6142   -0.7237    2.5795 H   0  0  0  0  0  0  0  0  0  0  0  0
   -1.1463   -1.5541    4.1418 H   0  0  0  0  0  0  0  0  0  0  0  0
    0.5028   -1.9170    4.6445 H   0  0  0  0  0  0  0  0  0  0  0  0
   -1.4274   -3.9053    3.3330 H   0  0  0  0  0  0  0  0  0  0  0  0
    0.2616   -4.2376    3.6744 H   0  0  0  0  0  0  0  0  0  0  0  0
   -1.1210   -5.1747    5.4294 H   0  0  0  0  0  0  0  0  0  0  0  0
   -0.0867   -3.9156    6.0829 H   0  0  0  0  0  0  0  0  0  0  0  0
   -1.9854   -2.3312    6.1768 H   0  0  0  0  0  0  0  0  0  0  0  0
   -2.3092   -3.8059    7.0700 H   0  0  0  0  0  0  0  0  0  0  0  0
   -4.3044   -3.1919    5.8250 H   0  0  0  0  0  0  0  0  0  0  0  0
   -3.6525   -4.6801    5.1192 H   0  0  0  0  0  0  0  0  0  0  0  0
   -3.4173   -3.1219    4.2997 H   0  0  0  0  0  0  0  0  0  0  0  0
  1  2  1  0
  2  3  1  0
  3  4  1  0
  4  5  1  0
  5  6  1  0
  6  7  1  0
  7  8  1  0
  8  9  1  0
  9 10  1  0
 10 11  1  0
 11 12  1  0
 12 13  1  0
 13 14  1  0
 14 15  1  0
 15 16  1  0
 16 17  1  0
 17 18  1  0
 18 19  1  0
 19 20  1  0
 20 21  1  0
 21 22  1  0
 22 23  1  0
 23 24  1  0
 24 25  1  0
 25 26  1  0
 26 27  1  0
 27 28  1  0
 28 29  1  0
 29 30  1  0
 30 31  1  0
 31 32  1  0
 32 33  1  0
 33 34  1  0
 34 35  1  0
 35 36  1  0
 36 37  1  0
 37 38  1  0
 38 39  1  0
  1 40  1  0
  1 41  1  0
  1 42  1  0
  2 43  1  0
  2 44  1  0
  3 45  1  0
  3 46  1  0
  4 47  1  0
  4 48  1  0
  5 49  1  0
  5 50  1  0
  6 51  1  0
  6 52  1  0
  7 53  1  0
  7 54  1  0
  8 55  1  0
  8 56  1  0
  9 57  1  0
  9 58  1  0
 10 59  1  0
 10 60  1  0
 11 61  1  0
 11 62  1  0
 12 63  1  0
 12 64  1  0
 13 65  1  0
 13 66  1  0
 14 67  1  0
 14 68  1  0
 15 69  1  0
 15 70  1  0
 16 71  1  0
 16 72  1  0
 17 73  1  0
 17 74  1  0
 18 75  1  0
 18 76  1  0
 19 77  1  0
 19 78  1  0
 20 79  1  0
 20 80  1  0
 21 81  1  0
 21 82  1  0
 22 83  1  0
 22 84  1  0
 23 85  1  0
 23 86  1  0
 24 87  1  0
 24 88  1  0
 25 89  1  0
 25 90  1  0
 26 91  1  0
 26 92  1  0
 27 93  1  0
 27 94  1  0
 28 95  1  0
 28 96  1  0
 29 97  1  0
 29 98  1  0
 30 99  1  0
 30100  1  0
 31101  1  0
 31102  1  0
 32103  1  0
 32104  1  0
 33105  1  0
 33106  1  0
 34107  1  0
 34108  1  0
 35109  1  0
 35110  1  0
 36111  1  0
 36112  1  0
 37113  1  0
 37114  1  0
 38115  1  0
 38116  1  0
 39117  1  0
 39118  1  0
 39119  1  0
M  END
$$$$
